data_image0
_chemical_formula_structural       C384Cu8H192N144
_chemical_formula_sum              "C384 Cu8 H192 N144"
_cell_length_a       22.17
_cell_length_b       34.2331
_cell_length_c       40.1965
_cell_angle_alpha    90
_cell_angle_beta     90
_cell_angle_gamma    105.363

_space_group_name_H-M_alt    "P 1"
_space_group_IT_number       1

loop_
  _space_group_symop_operation_xyz
  'x, y, z'

loop_
  _atom_site_type_symbol
  _atom_site_label
  _atom_site_symmetry_multiplicity
  _atom_site_fract_x
  _atom_site_fract_y
  _atom_site_fract_z
  _atom_site_occupancy
  C   C1        1.0  0.36406  0.99278  0.58198  1.0000
  C   C2        1.0  0.30328  0.02736  0.61526  1.0000
  C   C3        1.0  0.38732  0.06558  0.58202  1.0000
  C   C4        1.0  0.25474  0.17289  0.61555  1.0000
  C   C5        1.0  0.31510  0.99114  0.60436  1.0000
  C   C6        1.0  0.29088  0.17161  0.67092  1.0000
  C   C7        1.0  0.40178  0.03025  0.57089  1.0000
  C   C8        1.0  0.23650  0.20829  0.62197  1.0000
  C   C9        1.0  0.24404  0.22444  0.65379  1.0000
  C   C10       1.0  0.26930  0.20530  0.67900  1.0000
  C   C11       1.0  0.43808  0.23097  0.57913  1.0000
  C   C12       1.0  0.41516  0.17782  0.61945  1.0000
  C   C13       1.0  0.37912  0.16353  0.56396  1.0000
  C   C14       1.0  0.42244  0.15949  0.65148  1.0000
  C   C15       1.0  0.44266  0.21823  0.61150  1.0000
  C   C16       1.0  0.39568  0.09787  0.68217  1.0000
  C   C17       1.0  0.41166  0.20294  0.55413  1.0000
  C   C18       1.0  0.47104  0.17632  0.67352  1.0000
  C   C19       1.0  0.48210  0.15336  0.70003  1.0000
  C   C20       1.0  0.44662  0.11317  0.70418  1.0000
  C   C21       1.0  0.17440  0.12867  0.53747  1.0000
  C   C22       1.0  0.23936  0.14912  0.58524  1.0000
  C   C23       1.0  0.22262  0.08206  0.56529  1.0000
  C   C24       1.0  0.25504  0.02998  0.64001  1.0000
  C   C25       1.0  0.20390  0.15888  0.55936  1.0000
  C   C26       1.0  0.17052  0.00278  0.67896  1.0000
  C   C27       1.0  0.21156  0.07467  0.67147  1.0000
  C   C28       1.0  0.17866  0.08888  0.54210  1.0000
  C   C29       1.0  0.21282  0.99642  0.65494  1.0000
  C   C30       1.0  0.17022  0.04225  0.68785  1.0000
  C   C31       1.0  0.69368  0.55244  0.58462  1.0000
  C   C32       1.0  0.74282  0.51036  0.61744  1.0000
  C   C33       1.0  0.65984  0.47967  0.58028  1.0000
  C   C34       1.0  0.76892  0.35825  0.61338  1.0000
  C   C35       1.0  0.73784  0.54890  0.60831  1.0000
  C   C36       1.0  0.73186  0.35929  0.66863  1.0000
  C   C37       1.0  0.65414  0.51783  0.56980  1.0000
  C   C38       1.0  0.78116  0.32073  0.61891  1.0000
  C   C39       1.0  0.77108  0.30357  0.65033  1.0000
  C   C40       1.0  0.74906  0.32361  0.67623  1.0000
  C   C41       1.0  0.58706  0.31284  0.57194  1.0000
  C   C42       1.0  0.61292  0.36345  0.61419  1.0000
  C   C43       1.0  0.65360  0.37928  0.55967  1.0000
  C   C44       1.0  0.60674  0.38010  0.64699  1.0000
  C   C45       1.0  0.58190  0.32422  0.60458  1.0000
  C   C46       1.0  0.64124  0.43806  0.68163  1.0000
  C   C47       1.0  0.61782  0.34133  0.54818  1.0000
  C   C48       1.0  0.55652  0.36379  0.66819  1.0000
  C   C49       1.0  0.54880  0.38509  0.69638  1.0000
  C   C50       1.0  0.58942  0.42323  0.70305  1.0000
  C   C51       1.0  0.85992  0.40297  0.53813  1.0000
  C   C52       1.0  0.78976  0.38318  0.58406  1.0000
  C   C53       1.0  0.81566  0.45147  0.56603  1.0000
  C   C54       1.0  0.78788  0.50315  0.64231  1.0000
  C   C55       1.0  0.82576  0.37272  0.55872  1.0000
  C   C56       1.0  0.87340  0.52367  0.68187  1.0000
  C   C57       1.0  0.82374  0.45326  0.67143  1.0000
  C   C58       1.0  0.85932  0.44337  0.54334  1.0000
  C   C59       1.0  0.83340  0.53398  0.65845  1.0000
  C   C60       1.0  0.86812  0.48296  0.68913  1.0000
  C   C61       1.0  0.69332  0.03889  0.42839  1.0000
  C   C62       1.0  0.75324  0.99998  0.39897  1.0000
  C   C63       1.0  0.66860  0.96638  0.43397  1.0000
  C   C64       1.0  0.78848  0.85094  0.40730  1.0000
  C   C65       1.0  0.74254  0.03758  0.40681  1.0000
  C   C66       1.0  0.75054  0.84992  0.35213  1.0000
  C   C67       1.0  0.65470  0.00296  0.44173  1.0000
  C   C68       1.0  0.80100  0.81327  0.40276  1.0000
  C   C69       1.0  0.78764  0.79403  0.37219  1.0000
  C   C70       1.0  0.76254  0.81245  0.34651  1.0000
  C   C71       1.0  0.59894  0.79974  0.43905  1.0000
  C   C72       1.0  0.62906  0.85302  0.39915  1.0000
  C   C73       1.0  0.66516  0.86503  0.45488  1.0000
  C   C74       1.0  0.62570  0.87192  0.36691  1.0000
  C   C75       1.0  0.59664  0.81332  0.40680  1.0000
  C   C76       1.0  0.66128  0.93294  0.33603  1.0000
  C   C77       1.0  0.62834  0.82642  0.46427  1.0000
  C   C78       1.0  0.57690  0.85738  0.34440  1.0000
  C   C79       1.0  0.57020  0.88126  0.31760  1.0000
  C   C80       1.0  0.61028  0.92017  0.31368  1.0000
  C   C81       1.0  0.87494  0.89857  0.48290  1.0000
  C   C82       1.0  0.80684  0.87651  0.43651  1.0000
  C   C83       1.0  0.82784  0.94491  0.45389  1.0000
  C   C84       1.0  0.80194  0.99381  0.37569  1.0000
  C   C85       1.0  0.84310  0.86749  0.46234  1.0000
  C   C86       1.0  0.89354  0.01530  0.34020  1.0000
  C   C87       1.0  0.84828  0.94476  0.35233  1.0000
  C   C88       1.0  0.87192  0.93840  0.47711  1.0000
  C   C89       1.0  0.84708  0.02498  0.35982  1.0000
  C   C90       1.0  0.89586  0.97489  0.33686  1.0000
  C   C91       1.0  0.33216  0.47388  0.43140  1.0000
  C   C92       1.0  0.28292  0.51755  0.40038  1.0000
  C   C93       1.0  0.36588  0.54637  0.43813  1.0000
  C   C94       1.0  0.25974  0.67013  0.40806  1.0000
  C   C95       1.0  0.28786  0.47856  0.40811  1.0000
  C   C96       1.0  0.29404  0.66752  0.35240  1.0000
  C   C97       1.0  0.37182  0.50779  0.44709  1.0000
  C   C98       1.0  0.24664  0.70733  0.40206  1.0000
  C   C99       1.0  0.25600  0.72388  0.37034  1.0000
  C   C100      1.0  0.27776  0.70333  0.34473  1.0000
  C   C101      1.0  0.44662  0.71477  0.44570  1.0000
  C   C102      1.0  0.41580  0.66345  0.40432  1.0000
  C   C103      1.0  0.37912  0.64917  0.45972  1.0000
  C   C104      1.0  0.41922  0.64589  0.37160  1.0000
  C   C105      1.0  0.44882  0.70261  0.41307  1.0000
  C   C106      1.0  0.38148  0.58688  0.33853  1.0000
  C   C107      1.0  0.41694  0.68707  0.47022  1.0000
  C   C108      1.0  0.46850  0.66093  0.34951  1.0000
  C   C109      1.0  0.47414  0.63840  0.32171  1.0000
  C   C110      1.0  0.43246  0.60030  0.31635  1.0000
  C   C111      1.0  0.17348  0.62705  0.48515  1.0000
  C   C112      1.0  0.24084  0.64588  0.43799  1.0000
  C   C113      1.0  0.21610  0.57794  0.45698  1.0000
  C   C114      1.0  0.23662  0.52613  0.37680  1.0000
  C   C115      1.0  0.20640  0.65689  0.46379  1.0000
  C   C116      1.0  0.14610  0.50784  0.34027  1.0000
  C   C117      1.0  0.19316  0.57731  0.35508  1.0000
  C   C118      1.0  0.17376  0.58653  0.48023  1.0000
  C   C119      1.0  0.19096  0.49637  0.35979  1.0000
  C   C120      1.0  0.14538  0.54861  0.33828  1.0000
  C   C121      1.0  0.84440  0.48962  0.08447  1.0000
  C   C122      1.0  0.78860  0.52681  0.11844  1.0000
  C   C123      1.0  0.86724  0.56224  0.08095  1.0000
  C   C124      1.0  0.74642  0.67430  0.11317  1.0000
  C   C125      1.0  0.79926  0.48977  0.10880  1.0000
  C   C126      1.0  0.78488  0.67457  0.16817  1.0000
  C   C127      1.0  0.87834  0.52610  0.06986  1.0000
  C   C128      1.0  0.73222  0.71132  0.11849  1.0000
  C   C129      1.0  0.74500  0.72985  0.14936  1.0000
  C   C130      1.0  0.77110  0.71134  0.17461  1.0000
  C   C131      1.0  0.93994  0.72631  0.07716  1.0000
  C   C132      1.0  0.90744  0.67504  0.11866  1.0000
  C   C133      1.0  0.86990  0.66148  0.06328  1.0000
  C   C134      1.0  0.91228  0.65679  0.15109  1.0000
  C   C135      1.0  0.94124  0.71410  0.10986  1.0000
  C   C136      1.0  0.88046  0.59609  0.18279  1.0000
  C   C137      1.0  0.90850  0.69907  0.05273  1.0000
  C   C138      1.0  0.96088  0.67279  0.17341  1.0000
  C   C139      1.0  0.96942  0.64991  0.20047  1.0000
  C   C140      1.0  0.93152  0.61045  0.20498  1.0000
  C   C141      1.0  0.65892  0.62690  0.03785  1.0000
  C   C142      1.0  0.72814  0.64909  0.08377  1.0000
  C   C143      1.0  0.70760  0.58083  0.06611  1.0000
  C   C144      1.0  0.74092  0.53140  0.14275  1.0000
  C   C145      1.0  0.69092  0.65798  0.05836  1.0000
  C   C146      1.0  0.64960  0.50711  0.17777  1.0000
  C   C147      1.0  0.69136  0.57831  0.16670  1.0000
  C   C148      1.0  0.66248  0.58710  0.04335  1.0000
  C   C149      1.0  0.69720  0.49910  0.15816  1.0000
  C   C150      1.0  0.64484  0.54694  0.18146  1.0000
  C   C151      1.0  0.19114  0.03461  0.08605  1.0000
  C   C152      1.0  0.25184  0.99853  0.11801  1.0000
  C   C153      1.0  0.16924  0.96199  0.08297  1.0000
  C   C154      1.0  0.30000  0.85260  0.11389  1.0000
  C   C155      1.0  0.23954  0.03519  0.10866  1.0000
  C   C156      1.0  0.26492  0.85356  0.16958  1.0000
  C   C157      1.0  0.15446  0.99773  0.07321  1.0000
  C   C158      1.0  0.31842  0.81716  0.12003  1.0000
  C   C159      1.0  0.31100  0.80063  0.15179  1.0000
  C   C160      1.0  0.28612  0.81957  0.17729  1.0000
  C   C161      1.0  0.10472  0.79819  0.07776  1.0000
  C   C162      1.0  0.13790  0.84938  0.11927  1.0000
  C   C163      1.0  0.17306  0.86349  0.06354  1.0000
  C   C164      1.0  0.13326  0.86769  0.15174  1.0000
  C   C165      1.0  0.10444  0.81021  0.11059  1.0000
  C   C166      1.0  0.16344  0.92919  0.18252  1.0000
  C   C167      1.0  0.13468  0.82575  0.05316  1.0000
  C   C168      1.0  0.08520  0.85156  0.17433  1.0000
  C   C169      1.0  0.07602  0.87483  0.20104  1.0000
  C   C170      1.0  0.11278  0.91473  0.20489  1.0000
  C   C171      1.0  0.38494  0.89949  0.03769  1.0000
  C   C172      1.0  0.31622  0.87719  0.08387  1.0000
  C   C173      1.0  0.33462  0.94509  0.06537  1.0000
  C   C174      1.0  0.30136  0.99472  0.14171  1.0000
  C   C175      1.0  0.35372  0.86847  0.05850  1.0000
  C   C176      1.0  0.39284  0.01988  0.17679  1.0000
  C   C177      1.0  0.35318  0.94875  0.16532  1.0000
  C   C178      1.0  0.38028  0.93915  0.04273  1.0000
  C   C179      1.0  0.34462  0.02735  0.15714  1.0000
  C   C180      1.0  0.39886  0.98030  0.18033  1.0000
  C   C181      1.0  0.18196  0.53951  0.93497  1.0000
  C   C182      1.0  0.23432  0.49966  0.90143  1.0000
  C   C183      1.0  0.15310  0.46680  0.93834  1.0000
  C   C184      1.0  0.26710  0.34918  0.90987  1.0000
  C   C185      1.0  0.22658  0.53763  0.91077  1.0000
  C   C186      1.0  0.23474  0.35018  0.85376  1.0000
  C   C187      1.0  0.14542  0.50380  0.94950  1.0000
  C   C188      1.0  0.28242  0.31249  0.90474  1.0000
  C   C189      1.0  0.27586  0.29567  0.87310  1.0000
  C   C190      1.0  0.25456  0.31547  0.84684  1.0000
  C   C191      1.0  0.04592  0.31981  0.95116  1.0000
  C   C192      1.0  0.10246  0.35604  0.90510  1.0000
  C   C193      1.0  0.14346  0.37046  0.95994  1.0000
  C   C194      1.0  0.10608  0.36964  0.87051  1.0000
  C   C195      1.0  0.05120  0.32656  0.91740  1.0000
  C   C196      1.0  0.13984  0.42855  0.83716  1.0000
  C   C197      1.0  0.09132  0.34189  0.97323  1.0000
  C   C198      1.0  0.06346  0.35056  0.84621  1.0000
  C   C199      1.0  0.05608  0.37216  0.81825  1.0000
  C   C200      1.0  0.08904  0.41303  0.81500  1.0000
  C   C201      1.0  0.35598  0.39711  0.98462  1.0000
  C   C202      1.0  0.28574  0.37479  0.93903  1.0000
  C   C203      1.0  0.31008  0.44374  0.95521  1.0000
  C   C204      1.0  0.28156  0.49331  0.87766  1.0000
  C   C205      1.0  0.32226  0.36580  0.96478  1.0000
  C   C206      1.0  0.37284  0.51502  0.84230  1.0000
  C   C207      1.0  0.32856  0.44445  0.85490  1.0000
  C   C208      1.0  0.35424  0.43710  0.97836  1.0000
  C   C209      1.0  0.32628  0.52454  0.86171  1.0000
  C   C210      1.0  0.37574  0.47473  0.83931  1.0000
  C   C211      1.0  0.86850  0.99116  0.92733  1.0000
  C   C212      1.0  0.80950  0.03045  0.89752  1.0000
  C   C213      1.0  0.89466  0.06371  0.93222  1.0000
  C   C214      1.0  0.77342  0.18016  0.90597  1.0000
  C   C215      1.0  0.81968  0.99272  0.90557  1.0000
  C   C216      1.0  0.80716  0.18022  0.84992  1.0000
  C   C217      1.0  0.90768  0.02698  0.94051  1.0000
  C   C218      1.0  0.75758  0.21667  0.90096  1.0000
  C   C219      1.0  0.76406  0.23376  0.86944  1.0000
  C   C220      1.0  0.78598  0.21458  0.84295  1.0000
  C   C221      1.0  0.99380  0.21038  0.94851  1.0000
  C   C222      1.0  0.93912  0.17368  0.90209  1.0000
  C   C223      1.0  0.89684  0.15900  0.95672  1.0000
  C   C224      1.0  0.93690  0.15948  0.86758  1.0000
  C   C225      1.0  0.98944  0.20367  0.91470  1.0000
  C   C226      1.0  0.90072  0.10059  0.83428  1.0000
  C   C227      1.0  0.94846  0.18769  0.97032  1.0000
  C   C228      1.0  0.98266  0.17666  0.84406  1.0000
  C   C229      1.0  0.98998  0.15404  0.81665  1.0000
  C   C230      1.0  0.95306  0.11421  0.81287  1.0000
  C   C231      1.0  0.68134  0.13078  0.97950  1.0000
  C   C232      1.0  0.75382  0.15404  0.93491  1.0000
  C   C233      1.0  0.72992  0.08494  0.95091  1.0000
  C   C234      1.0  0.76076  0.03661  0.87436  1.0000
  C   C235      1.0  0.71554  0.16240  0.96010  1.0000
  C   C236      1.0  0.66914  0.01501  0.83893  1.0000
  C   C237      1.0  0.71336  0.08546  0.85170  1.0000
  C   C238      1.0  0.68426  0.09096  0.97347  1.0000
  C   C239      1.0  0.71588  0.00542  0.85836  1.0000
  C   C240      1.0  0.66616  0.05532  0.83601  1.0000
  C   C241      1.0  0.54092  0.26603  0.49776  1.0000
  C   C242      1.0  0.48646  0.27950  0.49984  1.0000
  C   C243      1.0  0.54888  0.34684  0.50382  1.0000
  C   C244      1.0  0.59984  0.33189  0.51295  1.0000
  C   C245      1.0  0.48086  0.19920  0.50833  1.0000
  C   C246      1.0  0.43156  0.21457  0.51953  1.0000
  C   C247      1.0  0.55240  0.74912  0.51746  1.0000
  C   C248      1.0  0.49832  0.76293  0.51982  1.0000
  C   C249      1.0  0.55940  0.82978  0.51016  1.0000
  C   C250      1.0  0.60848  0.81432  0.49878  1.0000
  C   C251      1.0  0.48908  0.68198  0.51327  1.0000
  C   C252      1.0  0.43802  0.69723  0.50493  1.0000
  C   C253      1.0  0.04590  0.75376  0.00077  1.0000
  C   C254      1.0  0.99568  0.77157  0.00090  1.0000
  C   C255      1.0  0.06670  0.83570  0.00895  1.0000
  C   C256      1.0  0.11258  0.81636  0.01854  1.0000
  C   C257      1.0  0.97476  0.68946  0.00774  1.0000
  C   C258      1.0  0.92900  0.70862  0.01788  1.0000
  C   C259      1.0  0.05082  0.26260  0.02563  1.0000
  C   C260      1.0  0.98850  0.26495  0.02556  1.0000
  C   C261      1.0  0.02476  0.33596  0.02124  1.0000
  C   C262      1.0  0.08198  0.33121  0.00894  1.0000
  C   C263      1.0  0.01490  0.19197  0.01827  1.0000
  C   C264      1.0  0.95792  0.19735  0.00618  1.0000
  C   C265      1.0  0.02250  0.03330  0.51121  1.0000
  C   C266      1.0  0.02904  0.99422  0.50668  1.0000
  C   C267      1.0  0.13530  0.01630  0.52281  1.0000
  C   C268      1.0  0.12880  0.05563  0.52777  1.0000
  C   C269      1.0  0.91616  0.01121  0.49534  1.0000
  C   C270      1.0  0.92252  0.97183  0.49056  1.0000
  C   C271      1.0  0.01878  0.49534  0.51479  1.0000
  C   C272      1.0  0.01482  0.53492  0.50967  1.0000
  C   C273      1.0  0.90778  0.51545  0.52449  1.0000
  C   C274      1.0  0.91162  0.47561  0.52989  1.0000
  C   C275      1.0  0.12570  0.51475  0.49981  1.0000
  C   C276      1.0  0.12182  0.55455  0.49428  1.0000
  C   C277      1.0  0.50566  0.53161  0.01272  1.0000
  C   C278      1.0  0.51148  0.49226  0.00883  1.0000
  C   C279      1.0  0.61750  0.51390  0.02562  1.0000
  C   C280      1.0  0.61180  0.55356  0.02980  1.0000
  C   C281      1.0  0.39968  0.51008  0.99600  1.0000
  C   C282      1.0  0.40532  0.47042  0.99180  1.0000
  C   C283      1.0  0.53514  0.99552  0.00952  1.0000
  C   C284      1.0  0.52844  0.03467  0.00579  1.0000
  C   C285      1.0  0.42346  0.01246  0.02441  1.0000
  C   C286      1.0  0.43002  0.97296  0.02845  1.0000
  C   C287      1.0  0.64016  0.01766  0.99112  1.0000
  C   C288      1.0  0.63376  0.05719  0.98713  1.0000
  C   C289      1.0  0.55418  0.03451  0.50536  1.0000
  C   C290      1.0  0.50066  0.00165  0.50506  1.0000
  C   C291      1.0  0.54550  0.97065  0.46268  1.0000
  C   C292      1.0  0.60012  0.00315  0.46326  1.0000
  C   C293      1.0  0.50928  0.06518  0.54810  1.0000
  C   C294      1.0  0.45526  0.03220  0.54793  1.0000
  C   C295      1.0  0.50830  0.49495  0.51810  1.0000
  C   C296      1.0  0.51834  0.52948  0.49794  1.0000
  C   C297      1.0  0.61710  0.55582  0.52325  1.0000
  C   C298      1.0  0.60706  0.52156  0.54415  1.0000
  C   C299      1.0  0.40954  0.46864  0.49267  1.0000
  C   C300      1.0  0.41936  0.50319  0.47212  1.0000
  C   C301      1.0  0.00770  0.50147  0.02288  1.0000
  C   C302      1.0  0.01820  0.53029  0.99719  1.0000
  C   C303      1.0  0.93636  0.55558  0.01792  1.0000
  C   C304      1.0  0.92602  0.52694  0.04394  1.0000
  C   C305      1.0  0.08910  0.47592  0.00211  1.0000
  C   C306      1.0  0.09916  0.50429  0.97589  1.0000
  C   C307      1.0  0.00508  0.99484  0.00574  1.0000
  C   C308      1.0  0.05862  0.02768  0.00627  1.0000
  C   C309      1.0  0.01616  0.05896  0.96305  1.0000
  C   C310      1.0  0.96140  0.02652  0.96279  1.0000
  C   C311      1.0  0.04778  0.96368  0.04907  1.0000
  C   C312      1.0  0.10186  0.99660  0.04975  1.0000
  C   C313      1.0  0.26876  0.27375  0.74949  1.0000
  C   C314      1.0  0.25948  0.24710  0.77660  1.0000
  C   C315      1.0  0.26130  0.19310  0.74063  1.0000
  C   C316      1.0  0.26996  0.21978  0.71333  1.0000
  C   C317      1.0  0.26670  0.32774  0.78530  1.0000
  C   C318      1.0  0.25678  0.30101  0.81261  1.0000
  C   C319      1.0  0.76306  0.25596  0.74594  1.0000
  C   C320      1.0  0.76654  0.28129  0.77354  1.0000
  C   C321      1.0  0.75188  0.33351  0.73872  1.0000
  C   C322      1.0  0.74952  0.30839  0.71068  1.0000
  C   C323      1.0  0.77806  0.20380  0.78068  1.0000
  C   C324      1.0  0.78190  0.22923  0.80864  1.0000
  C   C325      1.0  0.79134  0.75990  0.27098  1.0000
  C   C326      1.0  0.74130  0.76271  0.25061  1.0000
  C   C327      1.0  0.70258  0.79637  0.29331  1.0000
  C   C328      1.0  0.75314  0.79398  0.31359  1.0000
  C   C329      1.0  0.83034  0.72653  0.22817  1.0000
  C   C330      1.0  0.77986  0.72904  0.20784  1.0000
  C   C331      1.0  0.28644  0.77444  0.27472  1.0000
  C   C332      1.0  0.27922  0.74861  0.24714  1.0000
  C   C333      1.0  0.27352  0.69297  0.28264  1.0000
  C   C334      1.0  0.28092  0.71886  0.31046  1.0000
  C   C335      1.0  0.29134  0.82999  0.23923  1.0000
  C   C336      1.0  0.28404  0.80409  0.21146  1.0000
  C   C337      1.0  0.03808  0.05500  0.74128  1.0000
  C   C338      1.0  0.07164  0.07653  0.76801  1.0000
  C   C339      1.0  0.16640  0.07130  0.74418  1.0000
  C   C340      1.0  0.13380  0.05071  0.71668  1.0000
  C   C341      1.0  0.94402  0.06481  0.76433  1.0000
  C   C342      1.0  0.97840  0.08806  0.79023  1.0000
  C   C343      1.0  0.96584  0.44257  0.76694  1.0000
  C   C344      1.0  0.99922  0.47126  0.74430  1.0000
  C   C345      1.0  0.09446  0.46754  0.77025  1.0000
  C   C346      1.0  0.06068  0.43749  0.79206  1.0000
  C   C347      1.0  0.87106  0.44285  0.74052  1.0000
  C   C348      1.0  0.90370  0.47079  0.71690  1.0000
  C   C349      1.0  0.03390  0.93730  0.28079  1.0000
  C   C350      1.0  0.01600  0.97197  0.27134  1.0000
  C   C351      1.0  0.07712  0.97606  0.22213  1.0000
  C   C352      1.0  0.09168  0.93968  0.23054  1.0000
  C   C353      1.0  0.96886  0.93030  0.32820  1.0000
  C   C354      1.0  0.94740  0.96372  0.31810  1.0000
  C   C355      1.0  0.02616  0.55306  0.27258  1.0000
  C   C356      1.0  0.01090  0.58889  0.28114  1.0000
  C   C357      1.0  0.07680  0.59610  0.32826  1.0000
  C   C358      1.0  0.09554  0.56130  0.31906  1.0000
  C   C359      1.0  0.96398  0.54841  0.22370  1.0000
  C   C360      1.0  0.95194  0.58581  0.23119  1.0000
  C   C361      1.0  0.52386  0.54520  0.24692  1.0000
  C   C362      1.0  0.50400  0.57944  0.23827  1.0000
  C   C363      1.0  0.56832  0.58880  0.19056  1.0000
  C   C364      1.0  0.59200  0.55611  0.20011  1.0000
  C   C365      1.0  0.46486  0.53929  0.29686  1.0000
  C   C366      1.0  0.44904  0.57549  0.28942  1.0000
  C   C367      1.0  0.53888  0.94563  0.23661  1.0000
  C   C368      1.0  0.51734  0.97867  0.24687  1.0000
  C   C369      1.0  0.57422  0.98127  0.29735  1.0000
  C   C370      1.0  0.59204  0.94627  0.28810  1.0000
  C   C371      1.0  0.47760  0.93973  0.18788  1.0000
  C   C372      1.0  0.45210  0.97109  0.19886  1.0000
  C   C373      1.0  0.51358  0.44038  0.78109  1.0000
  C   C374      1.0  0.49688  0.47614  0.77390  1.0000
  C   C375      1.0  0.55832  0.48396  0.72472  1.0000
  C   C376      1.0  0.57126  0.44651  0.73066  1.0000
  C   C377      1.0  0.44746  0.42974  0.82816  1.0000
  C   C378      1.0  0.42706  0.46425  0.82009  1.0000
  C   C379      1.0  0.54542  0.05737  0.77070  1.0000
  C   C380      1.0  0.52752  0.09213  0.77989  1.0000
  C   C381      1.0  0.59300  0.09982  0.82714  1.0000
  C   C382      1.0  0.61446  0.06631  0.81727  1.0000
  C   C383      1.0  0.48360  0.05243  0.72170  1.0000
  C   C384      1.0  0.46896  0.08885  0.72984  1.0000
  Cu  Cu1       1.0  0.31474  0.11057  0.62218  1.0000
  Cu  Cu2       1.0  0.71952  0.42553  0.62082  1.0000
  Cu  Cu3       1.0  0.73612  0.91612  0.39726  1.0000
  Cu  Cu4       1.0  0.30722  0.60234  0.40004  1.0000
  Cu  Cu5       1.0  0.80210  0.61038  0.12174  1.0000
  Cu  Cu6       1.0  0.24128  0.91521  0.12152  1.0000
  Cu  Cu7       1.0  0.21604  0.41505  0.89963  1.0000
  Cu  Cu8       1.0  0.82562  0.11484  0.89620  1.0000
  H   H1        1.0  0.20984  0.10484  0.67765  1.0000
  H   H2        1.0  0.21270  0.96571  0.64876  1.0000
  H   H3        1.0  0.22740  0.25084  0.65898  1.0000
  H   H4        1.0  0.31276  0.15722  0.68956  1.0000
  H   H5        1.0  0.21466  0.22277  0.60339  1.0000
  H   H6        1.0  0.13964  0.97704  0.69132  1.0000
  H   H7        1.0  0.14328  0.13566  0.51898  1.0000
  H   H8        1.0  0.22842  0.05208  0.56905  1.0000
  H   H9        1.0  0.19484  0.18824  0.55721  1.0000
  H   H10       1.0  0.37336  0.96473  0.57400  1.0000
  H   H11       1.0  0.41482  0.09473  0.57373  1.0000
  H   H12       1.0  0.28792  0.96193  0.61307  1.0000
  H   H13       1.0  0.52164  0.16633  0.71606  1.0000
  H   H14       1.0  0.36656  0.06725  0.68492  1.0000
  H   H15       1.0  0.50258  0.20596  0.66956  1.0000
  H   H16       1.0  0.45972  0.26230  0.57317  1.0000
  H   H17       1.0  0.35390  0.14199  0.54581  1.0000
  H   H18       1.0  0.46728  0.23976  0.62976  1.0000
  H   H19       1.0  0.82178  0.42204  0.67584  1.0000
  H   H20       1.0  0.83824  0.56565  0.65355  1.0000
  H   H21       1.0  0.78394  0.27560  0.65462  1.0000
  H   H22       1.0  0.71192  0.37462  0.68738  1.0000
  H   H23       1.0  0.80082  0.30539  0.60001  1.0000
  H   H24       1.0  0.90696  0.54741  0.69500  1.0000
  H   H25       1.0  0.89112  0.39521  0.52008  1.0000
  H   H26       1.0  0.81304  0.48206  0.57034  1.0000
  H   H27       1.0  0.83154  0.34256  0.55607  1.0000
  H   H28       1.0  0.68992  0.58247  0.57852  1.0000
  H   H29       1.0  0.62920  0.45255  0.56996  1.0000
  H   H30       1.0  0.76698  0.57620  0.61927  1.0000
  H   H31       1.0  0.50828  0.37275  0.71191  1.0000
  H   H32       1.0  0.67414  0.46705  0.68634  1.0000
  H   H33       1.0  0.52164  0.33594  0.66251  1.0000
  H   H34       1.0  0.56274  0.28238  0.56479  1.0000
  H   H35       1.0  0.68228  0.40078  0.54260  1.0000
  H   H36       1.0  0.55436  0.30246  0.62180  1.0000
  H   H37       1.0  0.84854  0.91356  0.34987  1.0000
  H   H38       1.0  0.84766  0.05642  0.36288  1.0000
  H   H39       1.0  0.79768  0.76505  0.36847  1.0000
  H   H40       1.0  0.73280  0.86522  0.33241  1.0000
  H   H41       1.0  0.82136  0.79883  0.42201  1.0000
  H   H42       1.0  0.92882  0.03948  0.32857  1.0000
  H   H43       1.0  0.90650  0.89200  0.50135  1.0000
  H   H44       1.0  0.82364  0.97504  0.44896  1.0000
  H   H45       1.0  0.85108  0.83792  0.46532  1.0000
  H   H46       1.0  0.68448  0.06783  0.43393  1.0000
  H   H47       1.0  0.64068  0.93837  0.44422  1.0000
  H   H48       1.0  0.77066  0.06550  0.39626  1.0000
  H   H49       1.0  0.53052  0.87033  0.30120  1.0000
  H   H50       1.0  0.69356  0.96258  0.33343  1.0000
  H   H51       1.0  0.54194  0.82904  0.34822  1.0000
  H   H52       1.0  0.57384  0.76893  0.44471  1.0000
  H   H53       1.0  0.69246  0.88527  0.47325  1.0000
  H   H54       1.0  0.57012  0.79283  0.38838  1.0000
  H   H55       1.0  0.19356  0.60865  0.35390  1.0000
  H   H56       1.0  0.18876  0.46457  0.36171  1.0000
  H   H57       1.0  0.24348  0.75186  0.36559  1.0000
  H   H58       1.0  0.31276  0.65162  0.33354  1.0000
  H   H59       1.0  0.22732  0.72297  0.42090  1.0000
  H   H60       1.0  0.11074  0.48465  0.32766  1.0000
  H   H61       1.0  0.14320  0.63515  0.50355  1.0000
  H   H62       1.0  0.21828  0.54724  0.45265  1.0000
  H   H63       1.0  0.20074  0.68711  0.46622  1.0000
  H   H64       1.0  0.33590  0.44360  0.43659  1.0000
  H   H65       1.0  0.39626  0.57305  0.44926  1.0000
  H   H66       1.0  0.25830  0.45183  0.39654  1.0000
  H   H67       1.0  0.51406  0.64967  0.30551  1.0000
  H   H68       1.0  0.34790  0.55792  0.33480  1.0000
  H   H69       1.0  0.50434  0.68863  0.35427  1.0000
  H   H70       1.0  0.47234  0.74517  0.45221  1.0000
  H   H71       1.0  0.35128  0.62832  0.47752  1.0000
  H   H72       1.0  0.47584  0.72374  0.39521  1.0000
  H   H73       1.0  0.68910  0.60911  0.16950  1.0000
  H   H74       1.0  0.69826  0.46802  0.15459  1.0000
  H   H75       1.0  0.73366  0.75833  0.15365  1.0000
  H   H76       1.0  0.80350  0.65917  0.18749  1.0000
  H   H77       1.0  0.71086  0.72571  0.09964  1.0000
  H   H78       1.0  0.61520  0.48209  0.18898  1.0000
  H   H79       1.0  0.62686  0.63346  0.01969  1.0000
  H   H80       1.0  0.71254  0.55080  0.07074  1.0000
  H   H81       1.0  0.68244  0.68745  0.05568  1.0000
  H   H82       1.0  0.85222  0.46104  0.07678  1.0000
  H   H83       1.0  0.89516  0.59069  0.07154  1.0000
  H   H84       1.0  0.77336  0.46133  0.11950  1.0000
  H   H85       1.0  0.00904  0.66224  0.21661  1.0000
  H   H86       1.0  0.84944  0.56610  0.18590  1.0000
  H   H87       1.0  0.99438  0.70167  0.16941  1.0000
  H   H88       1.0  0.96818  0.75619  0.07059  1.0000
  H   H89       1.0  0.84182  0.64078  0.04546  1.0000
  H   H90       1.0  0.96914  0.73499  0.12756  1.0000
  H   H91       1.0  0.35704  0.91830  0.16777  1.0000
  H   H92       1.0  0.34246  0.05824  0.15372  1.0000
  H   H93       1.0  0.32730  0.77404  0.15669  1.0000
  H   H94       1.0  0.24376  0.86806  0.18845  1.0000
  H   H95       1.0  0.34020  0.80291  0.10127  1.0000
  H   H96       1.0  0.42664  0.04509  0.18813  1.0000
  H   H97       1.0  0.41716  0.89301  0.01958  1.0000
  H   H98       1.0  0.32854  0.97490  0.06967  1.0000
  H   H99       1.0  0.36310  0.83923  0.05607  1.0000
  H   H100      1.0  0.18160  0.06295  0.07912  1.0000
  H   H101      1.0  0.14254  0.93330  0.07336  1.0000
  H   H102      1.0  0.26626  0.06390  0.11855  1.0000
  H   H103      1.0  0.03676  0.86245  0.21739  1.0000
  H   H104      1.0  0.19348  0.95956  0.18507  1.0000
  H   H105      1.0  0.05244  0.82230  0.17074  1.0000
  H   H106      1.0  0.07666  0.76823  0.07127  1.0000
  H   H107      1.0  0.19994  0.88453  0.04555  1.0000
  H   H108      1.0  0.07738  0.78916  0.12847  1.0000
  H   H109      1.0  0.32948  0.41337  0.85284  1.0000
  H   H110      1.0  0.32656  0.55596  0.86453  1.0000
  H   H111      1.0  0.29080  0.26842  0.86888  1.0000
  H   H112      1.0  0.21596  0.36529  0.83435  1.0000
  H   H113      1.0  0.30200  0.29776  0.92412  1.0000
  H   H114      1.0  0.40772  0.53930  0.83052  1.0000
  H   H115      1.0  0.38754  0.39041  0.00300  1.0000
  H   H116      1.0  0.30676  0.47398  0.94992  1.0000
  H   H117      1.0  0.32898  0.33596  0.96819  1.0000
  H   H118      1.0  0.17674  0.56874  0.94268  1.0000
  H   H119      1.0  0.12236  0.43925  0.94755  1.0000
  H   H120      1.0  0.25466  0.56550  0.90014  1.0000
  H   H121      1.0  0.01974  0.35793  0.80072  1.0000
  H   H122      1.0  0.16900  0.45915  0.83445  1.0000
  H   H123      1.0  0.03320  0.32038  0.84933  1.0000
  H   H124      1.0  0.00518  0.29729  0.96008  1.0000
  H   H125      1.0  0.17952  0.38753  0.97635  1.0000
  H   H126      1.0  0.01388  0.30962  0.90172  1.0000
  H   H127      1.0  0.71238  0.11655  0.84976  1.0000
  H   H128      1.0  0.71576  0.97401  0.86111  1.0000
  H   H129      1.0  0.74828  0.26076  0.86553  1.0000
  H   H130      1.0  0.82680  0.16553  0.83058  1.0000
  H   H131      1.0  0.73738  0.23103  0.92033  1.0000
  H   H132      1.0  0.63418  0.99081  0.82713  1.0000
  H   H133      1.0  0.64880  0.13716  0.99747  1.0000
  H   H134      1.0  0.73438  0.05492  0.94577  1.0000
  H   H135      1.0  0.70798  0.19202  0.96343  1.0000
  H   H136      1.0  0.87654  0.96209  0.93321  1.0000
  H   H137      1.0  0.92358  0.09142  0.94219  1.0000
  H   H138      1.0  0.79114  0.96482  0.89521  1.0000
  H   H139      1.0  0.02856  0.16652  0.79988  1.0000
  H   H140      1.0  0.86962  0.07060  0.83136  1.0000
  H   H141      1.0  0.01542  0.20593  0.84744  1.0000
  H   H142      1.0  0.03404  0.23308  0.95777  1.0000
  H   H143      1.0  0.86070  0.14155  0.97289  1.0000
  H   H144      1.0  0.02678  0.22108  0.89927  1.0000
  H   H145      1.0  0.55070  0.37839  0.50789  1.0000
  H   H146      1.0  0.48052  0.16807  0.51336  1.0000
  H   H147      1.0  0.56028  0.86108  0.50556  1.0000
  H   H148      1.0  0.48676  0.65041  0.50894  1.0000
  H   H149      1.0  0.07322  0.86763  0.01395  1.0000
  H   H150      1.0  0.96818  0.65742  0.01219  1.0000
  H   H151      1.0  0.01320  0.36453  0.01803  1.0000
  H   H152      1.0  0.02668  0.16366  0.01392  1.0000
  H   H153      1.0  0.17932  0.00918  0.52715  1.0000
  H   H154      1.0  0.87206  0.01830  0.49115  1.0000
  H   H155      1.0  0.86446  0.52374  0.52804  1.0000
  H   H156      1.0  0.16898  0.50643  0.49613  1.0000
  H   H157      1.0  0.66116  0.50648  0.03040  1.0000
  H   H158      1.0  0.35604  0.51753  0.99130  1.0000
  H   H159      1.0  0.37990  0.01963  0.02993  1.0000
  H   H160      1.0  0.68378  0.01047  0.98579  1.0000
  H   H161      1.0  0.54066  0.94558  0.44564  1.0000
  H   H162      1.0  0.51418  0.09008  0.56531  1.0000
  H   H163      1.0  0.66010  0.57974  0.52428  1.0000
  H   H164      1.0  0.36654  0.44471  0.49145  1.0000
  H   H165      1.0  0.90804  0.57674  0.01539  1.0000
  H   H166      1.0  0.11712  0.45456  0.00454  1.0000
  H   H167      1.0  0.02210  0.08414  0.94602  1.0000
  H   H168      1.0  0.04212  0.93851  0.06609  1.0000
  H   H169      1.0  0.25644  0.16107  0.73739  1.0000
  H   H170      1.0  0.27176  0.35981  0.78838  1.0000
  H   H171      1.0  0.74924  0.36440  0.73651  1.0000
  H   H172      1.0  0.78026  0.17277  0.78296  1.0000
  H   H173      1.0  0.66718  0.81042  0.30207  1.0000
  H   H174      1.0  0.86596  0.71272  0.21937  1.0000
  H   H175      1.0  0.26638  0.66066  0.28531  1.0000
  H   H176      1.0  0.29782  0.86225  0.23645  1.0000
  H   H177      1.0  0.21690  0.07830  0.74542  1.0000
  H   H178      1.0  0.89416  0.06105  0.76221  1.0000
  H   H179      1.0  0.14502  0.47692  0.77094  1.0000
  H   H180      1.0  0.82066  0.43172  0.73955  1.0000
  H   H181      1.0  0.09174  0.99066  0.19851  1.0000
  H   H182      1.0  0.95200  0.91388  0.35079  1.0000
  H   H183      1.0  0.09470  0.61307  0.35045  1.0000
  H   H184      1.0  0.94794  0.53306  0.20054  1.0000
  H   H185      1.0  0.58430  0.60593  0.16817  1.0000
  H   H186      1.0  0.45210  0.52433  0.32053  1.0000
  H   H187      1.0  0.58560  0.99446  0.32177  1.0000
  H   H188      1.0  0.46334  0.92435  0.16453  1.0000
  H   H189      1.0  0.57342  0.50044  0.70191  1.0000
  H   H190      1.0  0.42990  0.41151  0.84979  1.0000
  H   H191      1.0  0.60994  0.11653  0.84960  1.0000
  H   H192      1.0  0.46862  0.03744  0.69827  1.0000
  N   N1        1.0  0.28204  0.15580  0.63973  1.0000
  N   N2        1.0  0.38388  0.12202  0.65702  1.0000
  N   N3        1.0  0.25340  0.11283  0.58559  1.0000
  N   N4        1.0  0.33862  0.06326  0.60323  1.0000
  N   N5        1.0  0.37844  0.15307  0.59692  1.0000
  N   N6        1.0  0.25314  0.06809  0.64849  1.0000
  N   N7        1.0  0.74332  0.37610  0.63775  1.0000
  N   N8        1.0  0.64934  0.41540  0.65466  1.0000
  N   N9        1.0  0.78084  0.42091  0.58519  1.0000
  N   N10       1.0  0.70418  0.47688  0.60320  1.0000
  N   N11       1.0  0.65324  0.38805  0.59298  1.0000
  N   N12       1.0  0.78434  0.46372  0.64904  1.0000
  N   N13       1.0  0.76296  0.86787  0.38232  1.0000
  N   N14       1.0  0.66882  0.90773  0.36142  1.0000
  N   N15       1.0  0.79502  0.91347  0.43484  1.0000
  N   N16       1.0  0.71686  0.96587  0.41332  1.0000
  N   N17       1.0  0.66764  0.87610  0.42200  1.0000
  N   N18       1.0  0.80266  0.95466  0.37070  1.0000
  N   N19       1.0  0.28420  0.65173  0.38359  1.0000
  N   N20       1.0  0.37530  0.61077  0.36504  1.0000
  N   N21       1.0  0.24978  0.60811  0.43711  1.0000
  N   N22       1.0  0.32150  0.55020  0.41569  1.0000
  N   N23       1.0  0.37644  0.63969  0.42647  1.0000
  N   N24       1.0  0.23810  0.56578  0.37299  1.0000
  N   N25       1.0  0.77308  0.65736  0.13768  1.0000
  N   N26       1.0  0.87098  0.62033  0.15704  1.0000
  N   N27       1.0  0.74078  0.61238  0.08500  1.0000
  N   N28       1.0  0.82258  0.56169  0.10414  1.0000
  N   N29       1.0  0.86820  0.65140  0.09638  1.0000
  N   N30       1.0  0.73822  0.57004  0.14836  1.0000
  N   N31       1.0  0.27254  0.86921  0.13830  1.0000
  N   N32       1.0  0.17356  0.90463  0.15721  1.0000
  N   N33       1.0  0.30220  0.91351  0.08456  1.0000
  N   N34       1.0  0.21736  0.96331  0.10437  1.0000
  N   N35       1.0  0.17590  0.87335  0.09668  1.0000
  N   N36       1.0  0.30540  0.95637  0.14728  1.0000
  N   N37       1.0  0.24214  0.36634  0.88480  1.0000
  N   N38       1.0  0.14882  0.40517  0.86366  1.0000
  N   N39       1.0  0.27576  0.41217  0.93678  1.0000
  N   N40       1.0  0.19794  0.46555  0.91571  1.0000
  N   N41       1.0  0.14692  0.37753  0.92620  1.0000
  N   N42       1.0  0.28240  0.45414  0.87294  1.0000
  N   N43       1.0  0.79976  0.16373  0.88096  1.0000
  N   N44       1.0  0.89268  0.12466  0.86044  1.0000
  N   N45       1.0  0.76466  0.11687  0.93290  1.0000
  N   N46       1.0  0.84610  0.06458  0.91172  1.0000
  N   N47       1.0  0.89398  0.15231  0.92295  1.0000
  N   N48       1.0  0.75954  0.07571  0.86970  1.0000
  N   N49       1.0  0.49184  0.31994  0.50005  1.0000
  N   N50       1.0  0.59706  0.29303  0.50373  1.0000
  N   N51       1.0  0.53594  0.22571  0.49953  1.0000
  N   N52       1.0  0.43284  0.25331  0.51078  1.0000
  N   N53       1.0  0.50396  0.80337  0.51856  1.0000
  N   N54       1.0  0.60638  0.77524  0.50689  1.0000
  N   N55       1.0  0.54640  0.70861  0.51688  1.0000
  N   N56       1.0  0.44182  0.73629  0.51398  1.0000
  N   N57       1.0  0.00786  0.81254  0.00237  1.0000
  N   N58       1.0  0.10366  0.77685  0.00932  1.0000
  N   N59       1.0  0.03370  0.71276  0.00154  1.0000
  N   N60       1.0  0.93782  0.74826  0.00906  1.0000
  N   N61       1.0  0.97718  0.30202  0.02633  1.0000
  N   N62       1.0  0.09664  0.29612  0.01705  1.0000
  N   N63       1.0  0.06220  0.22555  0.02489  1.0000
  N   N64       1.0  0.94308  0.23205  0.01536  1.0000
  N   N65       1.0  0.08518  0.98650  0.51235  1.0000
  N   N66       1.0  0.07220  0.06287  0.52166  1.0000
  N   N67       1.0  0.96636  0.04104  0.50561  1.0000
  N   N68       1.0  0.97918  0.96458  0.49646  1.0000
  N   N69       1.0  0.95956  0.54419  0.51445  1.0000
  N   N70       1.0  0.96738  0.46680  0.52478  1.0000
  N   N71       1.0  0.07400  0.48605  0.50997  1.0000
  N   N72       1.0  0.06614  0.56342  0.49953  1.0000
  N   N73       1.0  0.56716  0.48419  0.01519  1.0000
  N   N74       1.0  0.55560  0.56109  0.02309  1.0000
  N   N75       1.0  0.45004  0.53973  0.00640  1.0000
  N   N76       1.0  0.46146  0.46275  0.99846  1.0000
  N   N77       1.0  0.47284  0.04234  0.01314  1.0000
  N   N78       1.0  0.48614  0.96583  0.02074  1.0000
  N   N79       1.0  0.59070  0.98780  0.00225  1.0000
  N   N80       1.0  0.57760  0.06441  0.99470  1.0000
  N   N81       1.0  0.49736  0.97063  0.48361  1.0000
  N   N82       1.0  0.60262  0.03459  0.48454  1.0000
  N   N83       1.0  0.55728  0.06550  0.52690  1.0000
  N   N84       1.0  0.45278  0.00118  0.52627  1.0000
  N   N85       1.0  0.57262  0.55899  0.50085  1.0000
  N   N86       1.0  0.55262  0.49172  0.54066  1.0000
  N   N87       1.0  0.45406  0.46538  0.51506  1.0000
  N   N88       1.0  0.47388  0.53289  0.47559  1.0000
  N   N89       1.0  0.98214  0.55658  0.99521  1.0000
  N   N90       1.0  0.96200  0.50039  0.04556  1.0000
  N   N91       1.0  0.04360  0.47513  0.02488  1.0000
  N   N92       1.0  0.06356  0.53110  0.97431  1.0000
  N   N93       1.0  0.06312  0.05882  0.98478  1.0000
  N   N94       1.0  0.95776  0.99496  0.98414  1.0000
  N   N95       1.0  0.00084  0.96363  0.02720  1.0000
  N   N96       1.0  0.10546  0.02791  0.02820  1.0000
  N   N97       1.0  0.25614  0.20743  0.77168  1.0000
  N   N98       1.0  0.27352  0.25950  0.71860  1.0000
  N   N99       1.0  0.27226  0.31341  0.75434  1.0000
  N   N100      1.0  0.25380  0.26130  0.80744  1.0000
  N   N101      1.0  0.76050  0.31936  0.76944  1.0000
  N   N102      1.0  0.75490  0.27006  0.71534  1.0000
  N   N103      1.0  0.76890  0.21785  0.75002  1.0000
  N   N104      1.0  0.77578  0.26742  0.80409  1.0000
  N   N105      1.0  0.69784  0.78064  0.26218  1.0000
  N   N106      1.0  0.79608  0.77555  0.30194  1.0000
  N   N107      1.0  0.83488  0.74207  0.25937  1.0000
  N   N108      1.0  0.73676  0.74727  0.21959  1.0000
  N   N109      1.0  0.27292  0.70851  0.25163  1.0000
  N   N110      1.0  0.28706  0.75904  0.30560  1.0000
  N   N111      1.0  0.29236  0.81451  0.27024  1.0000
  N   N112      1.0  0.27836  0.76397  0.21626  1.0000
  N   N113      1.0  0.13472  0.08386  0.76906  1.0000
  N   N114      1.0  0.06986  0.04255  0.71595  1.0000
  N   N115      1.0  0.97476  0.04914  0.74029  1.0000
  N   N116      1.0  0.04130  0.09249  0.79138  1.0000
  N   N117      1.0  0.06294  0.48348  0.74671  1.0000
  N   N118      1.0  0.99708  0.42666  0.78983  1.0000
  N   N119      1.0  0.90276  0.42930  0.76481  1.0000
  N   N120      1.0  0.96746  0.48499  0.71962  1.0000
  N   N121      1.0  0.03900  0.99102  0.24247  1.0000
  N   N122      1.0  0.07022  0.92183  0.26015  1.0000
  N   N123      1.0  0.01074  0.91766  0.30919  1.0000
  N   N124      1.0  0.97294  0.98439  0.29006  1.0000
  N   N125      1.0  0.03580  0.60923  0.30896  1.0000
  N   N126      1.0  0.06830  0.54009  0.29157  1.0000
  N   N127      1.0  0.00140  0.53322  0.24431  1.0000
  N   N128      1.0  0.97518  0.60452  0.26023  1.0000
  N   N129      1.0  0.52574  0.59999  0.21005  1.0000
  N   N130      1.0  0.56768  0.53436  0.22781  1.0000
  N   N131      1.0  0.50268  0.52534  0.27571  1.0000
  N   N132      1.0  0.46816  0.59400  0.25979  1.0000
  N   N133      1.0  0.53656  0.99626  0.27678  1.0000
  N   N134      1.0  0.57450  0.92993  0.25752  1.0000
  N   N135      1.0  0.51942  0.92742  0.20715  1.0000
  N   N136      1.0  0.47404  0.99056  0.22795  1.0000
  N   N137      1.0  0.52070  0.49760  0.74621  1.0000
  N   N138      1.0  0.54934  0.42623  0.75924  1.0000
  N   N139      1.0  0.48938  0.41839  0.80829  1.0000
  N   N140      1.0  0.45378  0.48721  0.79339  1.0000
  N   N141      1.0  0.55090  0.11216  0.80808  1.0000
  N   N142      1.0  0.58872  0.04527  0.78944  1.0000
  N   N143      1.0  0.52210  0.03787  0.74206  1.0000
  N   N144      1.0  0.49078  0.10720  0.75922  1.0000
