data_image0
_chemical_formula_structural       C464Dy16H312O92Si8
_chemical_formula_sum              "C464 Dy16 H312 O92 Si8"
_cell_length_a       21.3898
_cell_length_b       57.6721
_cell_length_c       58.5859
_cell_angle_alpha    96.963
_cell_angle_beta     90.399
_cell_angle_gamma    90.966

_space_group_name_H-M_alt    "P 1"
_space_group_IT_number       1

loop_
  _space_group_symop_operation_xyz
  'x, y, z'

loop_
  _atom_site_type_symbol
  _atom_site_label
  _atom_site_symmetry_multiplicity
  _atom_site_fract_x
  _atom_site_fract_y
  _atom_site_fract_z
  _atom_site_occupancy
  C   C1        1.0  0.40114  0.56263  0.97642  1.0000
  C   C2        1.0  0.41262  0.60606  0.97651  1.0000
  C   C3        1.0  0.13786  0.41163  0.98336  1.0000
  C   C4        1.0  0.15866  0.11276  0.96900  1.0000
  C   C5        1.0  0.72460  0.74272  0.98815  1.0000
  C   C6        1.0  0.68864  0.72264  0.98075  1.0000
  C   C7        1.0  0.67050  0.70724  0.99647  1.0000
  C   C8        1.0  0.82046  0.80118  0.98611  1.0000
  C   C9        1.0  0.86364  0.81380  0.97449  1.0000
  C   C10       1.0  0.92806  0.80999  0.97660  1.0000
  C   C11       1.0  0.94772  0.79164  0.98858  1.0000
  C   C12       1.0  0.20047  0.44787  0.99802  1.0000
  C   C13       1.0  0.55738  0.64524  0.97839  1.0000
  C   C14       1.0  0.54192  0.66621  0.96988  1.0000
  C   C15       1.0  0.57974  0.68625  0.97506  1.0000
  C   C16       1.0  0.63324  0.68571  0.98904  1.0000
  C   C17       1.0  0.64938  0.66460  0.99705  1.0000
  C   C18       1.0  0.61196  0.64463  0.99180  1.0000
  C   C19       1.0  0.51576  0.62423  0.97446  1.0000
  C   C20       1.0  0.54150  0.60190  0.97005  1.0000
  C   C21       1.0  0.50368  0.58192  0.96963  1.0000
  C   C22       1.0  0.43912  0.58376  0.97355  1.0000
  C   C23       1.0  0.45064  0.62612  0.97701  1.0000
  C   C24       1.0  0.09806  0.39301  0.98729  1.0000
  C   C25       1.0  0.05740  0.12887  0.98385  1.0000
  C   C26       1.0  0.03072  0.16988  0.99086  1.0000
  C   C27       1.0  0.06248  0.15175  0.97814  1.0000
  C   C28       1.0  0.09388  0.10987  0.97145  1.0000
  C   C29       1.0  0.06156  0.85394  0.98043  1.0000
  C   C30       1.0  0.02282  0.83543  0.98492  1.0000
  C   C31       1.0  0.97422  0.82728  0.96964  1.0000
  C   C32       1.0  0.20716  0.05145  0.94937  1.0000
  C   C33       1.0  0.19490  0.09385  0.96041  1.0000
  C   C34       1.0  0.16692  0.07187  0.95379  1.0000
  C   C35       1.0  0.18372  0.95265  0.96689  1.0000
  C   C36       1.0  0.10166  0.06928  0.95484  1.0000
  C   C37       1.0  0.06544  0.08814  0.96382  1.0000
  C   C38       1.0  0.05328  0.86481  0.96042  1.0000
  C   C39       1.0  0.96670  0.83763  0.94927  1.0000
  C   C40       1.0  0.09100  0.88614  0.95731  1.0000
  C   C41       1.0  0.06332  0.90547  0.94887  1.0000
  C   C42       1.0  0.09553  0.92696  0.95018  1.0000
  C   C43       1.0  0.15530  0.92945  0.96023  1.0000
  C   C44       1.0  0.18452  0.90990  0.96718  1.0000
  C   C45       1.0  0.15316  0.88838  0.96539  1.0000
  C   C46       1.0  0.36706  0.00029  0.93038  1.0000
  C   C47       1.0  0.41526  0.46817  0.94460  1.0000
  C   C48       1.0  0.20418  0.51810  0.93283  1.0000
  C   C49       1.0  0.00598  0.85618  0.94467  1.0000
  C   C50       1.0  0.45502  0.45825  0.92543  1.0000
  C   C51       1.0  0.52032  0.45811  0.92798  1.0000
  C   C52       1.0  0.46942  0.99258  0.91081  1.0000
  C   C53       1.0  0.40510  0.99672  0.90922  1.0000
  C   C54       1.0  0.55834  0.45319  0.90880  1.0000
  C   C55       1.0  0.13174  0.54089  0.91027  1.0000
  C   C56       1.0  0.17104  0.52176  0.91135  1.0000
  C   C57       1.0  0.42842  0.45175  0.90353  1.0000
  C   C58       1.0  0.39441  0.97677  0.01915  1.0000
  C   C59       1.0  0.43948  0.96015  0.02696  1.0000
  C   C60       1.0  0.42252  0.94560  0.04358  1.0000
  C   C61       1.0  0.46128  0.92750  0.04830  1.0000
  C   C62       1.0  0.92576  0.47149  0.23497  1.0000
  C   C63       1.0  0.94458  0.49367  0.24552  1.0000
  C   C64       1.0  0.96858  0.49641  0.26798  1.0000
  C   C65       1.0  0.97374  0.47702  0.28027  1.0000
  C   C66       1.0  0.95000  0.45523  0.27024  1.0000
  C   C67       1.0  0.92622  0.45250  0.24779  1.0000
  C   C68       1.0  0.96016  0.48778  0.18926  1.0000
  C   C69       1.0  0.02298  0.49195  0.19570  1.0000
  C   C70       1.0  0.06054  0.50663  0.18406  1.0000
  C   C71       1.0  0.03588  0.51731  0.16571  1.0000
  C   C72       1.0  0.97252  0.51352  0.15968  1.0000
  C   C73       1.0  0.93514  0.49875  0.17123  1.0000
  C   C74       1.0  0.82936  0.46820  0.19432  1.0000
  C   C75       1.0  0.79794  0.48939  0.19883  1.0000
  C   C76       1.0  0.74204  0.49284  0.18722  1.0000
  C   C77       1.0  0.71648  0.47503  0.17111  1.0000
  C   C78       1.0  0.74568  0.45324  0.16812  1.0000
  C   C79       1.0  0.80162  0.44989  0.17956  1.0000
  C   C80       1.0  0.94424  0.43689  0.19264  1.0000
  C   C81       1.0  0.87238  0.27366  0.05068  1.0000
  C   C82       1.0  0.87849  0.27455  0.02698  1.0000
  C   C83       1.0  0.90600  0.29413  0.01887  1.0000
  C   C84       1.0  0.92752  0.31317  0.03437  1.0000
  C   C85       1.0  0.91898  0.31251  0.05807  1.0000
  C   C86       1.0  0.89172  0.29294  0.06613  1.0000
  C   C87       1.0  0.89384  0.22166  0.04770  1.0000
  C   C88       1.0  0.95366  0.22579  0.03931  1.0000
  C   C89       1.0  0.98676  0.20754  0.02734  1.0000
  C   C90       1.0  0.96042  0.18484  0.02348  1.0000
  C   C91       1.0  0.90118  0.18074  0.03263  1.0000
  C   C92       1.0  0.86868  0.19889  0.04487  1.0000
  C   C93       1.0  0.76348  0.23839  0.05367  1.0000
  C   C94       1.0  0.74902  0.22866  0.03113  1.0000
  C   C95       1.0  0.69272  0.21641  0.02627  1.0000
  C   C96       1.0  0.64914  0.21410  0.04381  1.0000
  C   C97       1.0  0.66110  0.22618  0.06581  1.0000
  C   C98       1.0  0.71804  0.23803  0.07074  1.0000
  C   C99       1.0  0.85861  0.24765  0.09334  1.0000
  C   C100      1.0  0.86990  0.05511  0.24008  1.0000
  C   C101      1.0  0.88016  0.03202  0.23040  1.0000
  C   C102      1.0  0.90600  0.02746  0.20840  1.0000
  C   C103      1.0  0.92146  0.04594  0.19570  1.0000
  C   C104      1.0  0.90581  0.06879  0.20472  1.0000
  C   C105      1.0  0.88038  0.07332  0.22665  1.0000
  C   C106      1.0  0.90534  0.04422  0.28844  1.0000
  C   C107      1.0  0.96082  0.03423  0.27957  1.0000
  C   C108      1.0  0.99676  0.02058  0.29269  1.0000
  C   C109      1.0  0.97806  0.01699  0.31499  1.0000
  C   C110      1.0  0.92334  0.02762  0.32394  1.0000
  C   C111      1.0  0.88756  0.04111  0.31085  1.0000
  C   C112      1.0  0.77398  0.05705  0.28135  1.0000
  C   C113      1.0  0.75098  0.03406  0.28073  1.0000
  C   C114      1.0  0.70084  0.02898  0.29468  1.0000
  C   C115      1.0  0.67288  0.04682  0.30957  1.0000
  C   C116      1.0  0.69256  0.07006  0.30850  1.0000
  C   C117      1.0  0.74248  0.07511  0.29453  1.0000
  C   C118      1.0  0.88028  0.09329  0.28094  1.0000
  C   C119      1.0  0.90098  0.23451  0.43950  1.0000
  C   C120      1.0  0.89218  0.22726  0.46128  1.0000
  C   C121      1.0  0.91795  0.20629  0.46653  1.0000
  C   C122      1.0  0.95220  0.19213  0.44992  1.0000
  C   C123      1.0  0.95646  0.19872  0.42766  1.0000
  C   C124      1.0  0.93178  0.21973  0.42259  1.0000
  C   C125      1.0  0.94338  0.28540  0.44744  1.0000
  C   C126      1.0  0.97092  0.28186  0.46854  1.0000
  C   C127      1.0  0.01200  0.29863  0.47984  1.0000
  C   C128      1.0  0.02666  0.31909  0.47008  1.0000
  C   C129      1.0  0.99988  0.32238  0.44878  1.0000
  C   C130      1.0  0.95828  0.30577  0.43765  1.0000
  C   C131      1.0  0.80542  0.27628  0.44429  1.0000
  C   C132      1.0  0.80327  0.29249  0.46414  1.0000
  C   C133      1.0  0.75158  0.30683  0.46834  1.0000
  C   C134      1.0  0.70054  0.30510  0.45288  1.0000
  C   C135      1.0  0.70036  0.28721  0.43424  1.0000
  C   C136      1.0  0.75242  0.27298  0.42996  1.0000
  C   C137      1.0  0.88320  0.26612  0.40183  1.0000
  C   C138      1.0  0.74942  0.48851  0.72290  1.0000
  C   C139      1.0  0.69326  0.49935  0.72986  1.0000
  C   C140      1.0  0.65452  0.50824  0.71374  1.0000
  C   C141      1.0  0.67248  0.50709  0.69061  1.0000
  C   C142      1.0  0.73072  0.49767  0.68409  1.0000
  C   C143      1.0  0.76870  0.48839  0.70007  1.0000
  C   C144      1.0  0.74992  0.46273  0.76671  1.0000
  C   C145      1.0  0.68592  0.45717  0.76431  1.0000
  C   C146      1.0  0.65132  0.45216  0.78338  1.0000
  C   C147      1.0  0.68064  0.45228  0.80498  1.0000
  C   C148      1.0  0.74558  0.45607  0.80677  1.0000
  C   C149      1.0  0.77982  0.46117  0.78784  1.0000
  C   C150      1.0  0.86012  0.49151  0.75704  1.0000
  C   C151      1.0  0.84482  0.51212  0.77095  1.0000
  C   C152      1.0  0.88798  0.52285  0.78712  1.0000
  C   C153      1.0  0.94706  0.51304  0.78969  1.0000
  C   C154      1.0  0.96374  0.49347  0.77434  1.0000
  C   C155      1.0  0.92070  0.48282  0.75818  1.0000
  C   C156      1.0  0.82876  0.44577  0.72619  1.0000
  C   C157      1.0  0.74226  0.74771  0.01136  1.0000
  C   C158      1.0  0.68814  0.71248  0.01969  1.0000
  C   C159      1.0  0.72338  0.73255  0.02706  1.0000
  C   C160      1.0  0.73420  0.79910  0.03010  1.0000
  C   C161      1.0  0.67440  0.79913  0.02021  1.0000
  C   C162      1.0  0.63782  0.81904  0.02385  1.0000
  C   C163      1.0  0.66042  0.83926  0.03749  1.0000
  C   C164      1.0  0.71954  0.83878  0.04805  1.0000
  C   C165      1.0  0.75622  0.81892  0.04427  1.0000
  C   C166      1.0  0.84104  0.78466  0.00007  1.0000
  C   C167      1.0  0.90454  0.77911  0.00028  1.0000
  C   C168      1.0  0.83486  0.76948  0.04795  1.0000
  C   C169      1.0  0.71932  0.01963  0.75678  1.0000
  C   C170      1.0  0.74528  0.00929  0.77502  1.0000
  C   C171      1.0  0.70700  0.00262  0.79248  1.0000
  C   C172      1.0  0.64206  0.00613  0.79192  1.0000
  C   C173      1.0  0.61602  0.01557  0.77306  1.0000
  C   C174      1.0  0.65438  0.02246  0.75577  1.0000
  C   C175      1.0  0.73078  0.03733  0.70931  1.0000
  C   C176      1.0  0.69544  0.01865  0.69794  1.0000
  C   C177      1.0  0.67774  0.01870  0.67499  1.0000
  C   C178      1.0  0.69424  0.03762  0.66315  1.0000
  C   C179      1.0  0.72628  0.05695  0.67490  1.0000
  C   C180      1.0  0.74508  0.05668  0.69777  1.0000
  C   C181      1.0  0.83896  0.01553  0.72623  1.0000
  C   C182      1.0  0.82708  0.99390  0.71304  1.0000
  C   C183      1.0  0.87082  0.98459  0.69701  1.0000
  C   C184      1.0  0.92782  0.99639  0.69455  1.0000
  C   C185      1.0  0.94284  0.01641  0.70983  1.0000
  C   C186      1.0  0.89845  0.02603  0.72547  1.0000
  C   C187      1.0  0.79776  0.06237  0.75222  1.0000
  C   C188      1.0  0.79836  0.77525  0.50439  1.0000
  C   C189      1.0  0.74450  0.77141  0.51706  1.0000
  C   C190      1.0  0.70200  0.78945  0.52249  1.0000
  C   C191      1.0  0.71366  0.81176  0.51587  1.0000
  C   C192      1.0  0.76966  0.81587  0.50453  1.0000
  C   C193      1.0  0.81138  0.79779  0.49876  1.0000
  C   C194      1.0  0.80274  0.72605  0.47624  1.0000
  C   C195      1.0  0.73778  0.72697  0.47321  1.0000
  C   C196      1.0  0.70372  0.70676  0.46483  1.0000
  C   C197      1.0  0.73428  0.68543  0.45936  1.0000
  C   C198      1.0  0.79980  0.68509  0.46062  1.0000
  C   C199      1.0  0.83374  0.70528  0.46880  1.0000
  C   C200      1.0  0.89101  0.73673  0.51556  1.0000
  C   C201      1.0  0.86754  0.71590  0.52258  1.0000
  C   C202      1.0  0.90758  0.70068  0.53213  1.0000
  C   C203      1.0  0.97154  0.70642  0.53560  1.0000
  C   C204      1.0  0.99198  0.72906  0.53196  1.0000
  C   C205      1.0  0.95232  0.74393  0.52171  1.0000
  C   C206      1.0  0.90776  0.76030  0.47251  1.0000
  C   C207      1.0  0.36880  0.07313  0.00870  1.0000
  C   C208      1.0  0.17330  0.02234  0.04878  1.0000
  C   C209      1.0  0.44150  0.01912  0.52972  1.0000
  C   C210      1.0  0.22386  0.97409  0.44589  1.0000
  C   C211      1.0  0.40820  0.01388  0.44542  1.0000
  C   C212      1.0  0.41232  0.94271  0.50732  1.0000
  C   C213      1.0  0.19926  0.05209  0.48541  1.0000
  C   C214      1.0  0.19440  0.98762  0.55295  1.0000
  C   C215      1.0  0.26630  0.46270  0.52437  1.0000
  C   C216      1.0  0.45008  0.54666  0.46267  1.0000
  C   C217      1.0  0.41432  0.51697  0.54897  1.0000
  C   C218      1.0  0.42968  0.44768  0.46892  1.0000
  C   C219      1.0  0.22998  0.56239  0.51059  1.0000
  C   C220      1.0  0.23154  0.49485  0.42702  1.0000
  C   C221      1.0  0.25872  0.55335  0.03098  1.0000
  C   C222      1.0  0.41390  0.49502  0.04245  1.0000
  C   C223      1.0  0.52390  0.99693  0.84981  1.0000
  C   C224      1.0  0.50418  0.98867  0.82726  1.0000
  C   C225      1.0  0.54282  0.99121  0.80847  1.0000
  C   C226      1.0  0.60232  0.00187  0.81180  1.0000
  C   C227      1.0  0.62248  0.00976  0.83431  1.0000
  C   C228      1.0  0.58374  0.00744  0.85303  1.0000
  C   C229      1.0  0.48206  0.99537  0.86991  1.0000
  C   C230      1.0  0.50728  0.99174  0.89141  1.0000
  C   C231      1.0  0.37900  0.99913  0.88758  1.0000
  C   C232      1.0  0.41711  0.99861  0.86816  1.0000
  C   C233      1.0  0.57812  0.86640  0.51889  1.0000
  C   C234      1.0  0.56020  0.84300  0.51204  1.0000
  C   C235      1.0  0.60351  0.82512  0.51218  1.0000
  C   C236      1.0  0.66586  0.83027  0.51894  1.0000
  C   C237      1.0  0.68324  0.85356  0.52656  1.0000
  C   C238      1.0  0.63974  0.87142  0.52667  1.0000
  C   C239      1.0  0.53390  0.88559  0.51653  1.0000
  C   C240      1.0  0.52806  0.90434  0.53406  1.0000
  C   C241      1.0  0.48786  0.92275  0.53128  1.0000
  C   C242      1.0  0.45340  0.92293  0.51077  1.0000
  C   C243      1.0  0.45932  0.90415  0.49328  1.0000
  C   C244      1.0  0.49878  0.88565  0.49618  1.0000
  C   C245      1.0  0.55308  0.52167  0.63493  1.0000
  C   C246      1.0  0.61330  0.53191  0.63777  1.0000
  C   C247      1.0  0.65118  0.52800  0.65640  1.0000
  C   C248      1.0  0.62936  0.51412  0.67285  1.0000
  C   C249      1.0  0.56788  0.50511  0.67092  1.0000
  C   C250      1.0  0.53020  0.50875  0.65209  1.0000
  C   C251      1.0  0.51686  0.52268  0.61324  1.0000
  C   C252      1.0  0.45116  0.52385  0.61314  1.0000
  C   C253      1.0  0.41766  0.52271  0.59236  1.0000
  C   C254      1.0  0.44914  0.52035  0.57122  1.0000
  C   C255      1.0  0.51486  0.52004  0.57145  1.0000
  C   C256      1.0  0.54814  0.52105  0.59210  1.0000
  C   C257      1.0  0.02950  0.03470  0.13327  1.0000
  C   C258      1.0  0.04278  0.05369  0.15010  1.0000
  C   C259      1.0  0.00756  0.05723  0.17016  1.0000
  C   C260      1.0  0.95806  0.04188  0.17406  1.0000
  C   C261      1.0  0.94520  0.02265  0.15744  1.0000
  C   C262      1.0  0.98042  0.01913  0.13724  1.0000
  C   C263      1.0  0.06664  0.03140  0.11167  1.0000
  C   C264      1.0  0.08382  0.00899  0.10179  1.0000
  C   C265      1.0  0.11896  0.00607  0.08158  1.0000
  C   C266      1.0  0.13776  0.02548  0.07070  1.0000
  C   C267      1.0  0.12092  0.04789  0.08071  1.0000
  C   C268      1.0  0.08574  0.05079  0.10085  1.0000
  C   C269      1.0  0.05510  0.13236  0.46668  1.0000
  C   C270      1.0  0.07992  0.14743  0.45179  1.0000
  C   C271      1.0  0.04662  0.16673  0.44659  1.0000
  C   C272      1.0  0.98702  0.17145  0.45588  1.0000
  C   C273      1.0  0.96204  0.15644  0.47085  1.0000
  C   C274      1.0  0.99566  0.13710  0.47617  1.0000
  C   C275      1.0  0.09144  0.11184  0.47213  1.0000
  C   C276      1.0  0.06160  0.09025  0.47405  1.0000
  C   C277      1.0  0.09634  0.07086  0.47839  1.0000
  C   C278      1.0  0.16182  0.07256  0.48085  1.0000
  C   C279      1.0  0.19152  0.09419  0.47907  1.0000
  C   C280      1.0  0.15682  0.11357  0.47488  1.0000
  C   C281      1.0  0.08056  0.48381  0.34359  1.0000
  C   C282      1.0  0.08636  0.46406  0.32721  1.0000
  C   C283      1.0  0.05072  0.46171  0.30697  1.0000
  C   C284      1.0  0.00836  0.47905  0.30255  1.0000
  C   C285      1.0  0.00202  0.49871  0.31901  1.0000
  C   C286      1.0  0.03762  0.50104  0.33931  1.0000
  C   C287      1.0  0.11990  0.48654  0.36484  1.0000
  C   C288      1.0  0.14566  0.50847  0.37345  1.0000
  C   C289      1.0  0.18256  0.51108  0.39341  1.0000
  C   C290      1.0  0.19482  0.49180  0.40524  1.0000
  C   C291      1.0  0.16962  0.46980  0.39649  1.0000
  C   C292      1.0  0.13254  0.46722  0.37656  1.0000
  C   C293      1.0  0.03710  0.37052  0.01427  1.0000
  C   C294      1.0  0.98974  0.37450  0.03073  1.0000
  C   C295      1.0  0.95262  0.35603  0.03660  1.0000
  C   C296      1.0  0.96198  0.33312  0.02618  1.0000
  C   C297      1.0  0.00758  0.32927  0.00900  1.0000
  C   C298      1.0  0.04472  0.34779  0.00308  1.0000
  C   C299      1.0  0.08022  0.38986  0.00977  1.0000
  C   C300      1.0  0.16086  0.42737  0.00187  1.0000
  C   C301      1.0  0.14388  0.42382  0.02436  1.0000
  C   C302      1.0  0.10410  0.40534  0.02824  1.0000
  C   C303      1.0  0.55462  0.90232  0.03902  1.0000
  C   C304      1.0  0.52426  0.88077  0.04068  1.0000
  C   C305      1.0  0.55864  0.86044  0.04097  1.0000
  C   C306      1.0  0.62414  0.86114  0.03945  1.0000
  C   C307      1.0  0.65462  0.88280  0.03850  1.0000
  C   C308      1.0  0.62026  0.90316  0.03836  1.0000
  C   C309      1.0  0.51758  0.92342  0.03639  1.0000
  C   C310      1.0  0.53596  0.93872  0.02061  1.0000
  C   C311      1.0  0.49746  0.95694  0.01602  1.0000
  C   C312      1.0  0.63704  0.03237  0.59232  1.0000
  C   C313      1.0  0.62262  0.05226  0.60772  1.0000
  C   C314      1.0  0.64376  0.05452  0.63051  1.0000
  C   C315      1.0  0.67882  0.03679  0.63846  1.0000
  C   C316      1.0  0.69634  0.01759  0.62293  1.0000
  C   C317      1.0  0.67624  0.01552  0.60002  1.0000
  C   C318      1.0  0.60322  0.02765  0.56986  1.0000
  C   C319      1.0  0.58012  0.00495  0.56242  1.0000
  C   C320      1.0  0.53270  0.00145  0.54585  1.0000
  C   C321      1.0  0.50740  0.02054  0.53657  1.0000
  C   C322      1.0  0.53572  0.04264  0.54161  1.0000
  C   C323      1.0  0.58388  0.04615  0.55799  1.0000
  C   C324      1.0  0.62188  0.62239  0.45054  1.0000
  C   C325      1.0  0.67520  0.62431  0.46487  1.0000
  C   C326      1.0  0.71284  0.64444  0.46693  1.0000
  C   C327      1.0  0.69786  0.66326  0.45490  1.0000
  C   C328      1.0  0.64574  0.66121  0.44006  1.0000
  C   C329      1.0  0.60839  0.64090  0.43776  1.0000
  C   C330      1.0  0.57812  0.60204  0.45053  1.0000
  C   C331      1.0  0.51316  0.60526  0.44996  1.0000
  C   C332      1.0  0.47178  0.58690  0.45280  1.0000
  C   C333      1.0  0.49426  0.56490  0.45653  1.0000
  C   C334      1.0  0.55904  0.56133  0.45618  1.0000
  C   C335      1.0  0.60052  0.57966  0.45304  1.0000
  C   C336      1.0  0.57202  0.44806  0.86599  1.0000
  C   C337      1.0  0.62188  0.46422  0.86587  1.0000
  C   C338      1.0  0.65724  0.46525  0.84615  1.0000
  C   C339      1.0  0.64370  0.45020  0.82597  1.0000
  C   C340      1.0  0.59412  0.43389  0.82602  1.0000
  C   C341      1.0  0.55866  0.43280  0.84588  1.0000
  C   C342      1.0  0.53190  0.44859  0.88663  1.0000
  C   C343      1.0  0.46648  0.44705  0.88430  1.0000
  C   C344      1.0  0.02028  0.12441  0.00253  1.0000
  C   C345      1.0  0.98936  0.14256  0.01548  1.0000
  C   C346      1.0  0.99408  0.16555  0.00982  1.0000
  C   C347      1.0  0.08648  0.98430  0.36343  1.0000
  C   C348      1.0  0.02184  0.98010  0.36149  1.0000
  C   C349      1.0  0.98723  0.98935  0.34461  1.0000
  C   C350      1.0  0.01648  0.00338  0.32963  1.0000
  C   C351      1.0  0.08198  0.00612  0.33054  1.0000
  C   C352      1.0  0.11678  0.99656  0.34730  1.0000
  C   C353      1.0  0.11986  0.97947  0.38437  1.0000
  C   C354      1.0  0.17378  0.96583  0.38332  1.0000
  C   C355      1.0  0.20678  0.96297  0.40352  1.0000
  C   C356      1.0  0.18700  0.97434  0.42473  1.0000
  C   C357      1.0  0.13296  0.98779  0.42567  1.0000
  C   C358      1.0  0.09926  0.99011  0.40572  1.0000
  C   C359      1.0  0.14216  0.37464  0.50412  1.0000
  C   C360      1.0  0.09544  0.36414  0.51636  1.0000
  C   C361      1.0  0.05918  0.34551  0.50553  1.0000
  C   C362      1.0  0.06846  0.33732  0.48223  1.0000
  C   C363      1.0  0.11602  0.34751  0.47019  1.0000
  C   C364      1.0  0.15258  0.36590  0.48103  1.0000
  C   C365      1.0  0.17716  0.39574  0.51452  1.0000
  C   C366      1.0  0.24136  0.39813  0.51034  1.0000
  C   C367      1.0  0.27178  0.41969  0.51561  1.0000
  C   C368      1.0  0.23852  0.43926  0.52512  1.0000
  C   C369      1.0  0.17594  0.43644  0.53141  1.0000
  C   C370      1.0  0.14536  0.41478  0.52610  1.0000
  C   C371      1.0  0.14794  0.55037  0.11795  1.0000
  C   C372      1.0  0.16916  0.53047  0.12722  1.0000
  C   C373      1.0  0.13436  0.52060  0.14372  1.0000
  C   C374      1.0  0.07720  0.53021  0.15124  1.0000
  C   C375      1.0  0.05740  0.55078  0.14295  1.0000
  C   C376      1.0  0.09258  0.56083  0.12654  1.0000
  C   C377      1.0  0.17950  0.55799  0.09748  1.0000
  C   C378      1.0  0.24442  0.55548  0.09476  1.0000
  C   C379      1.0  0.27152  0.55618  0.07327  1.0000
  C   C380      1.0  0.23450  0.55993  0.05427  1.0000
  C   C381      1.0  0.17136  0.56547  0.05753  1.0000
  C   C382      1.0  0.14386  0.56429  0.07895  1.0000
  C   C383      1.0  0.04128  0.98515  0.63403  1.0000
  C   C384      1.0  0.06714  0.98303  0.65590  1.0000
  C   C385      1.0  0.03017  0.98602  0.67564  1.0000
  C   C386      1.0  0.96622  0.99045  0.67386  1.0000
  C   C387      1.0  0.93964  0.99159  0.65208  1.0000
  C   C388      1.0  0.97672  0.98923  0.63245  1.0000
  C   C389      1.0  0.08162  0.98440  0.61318  1.0000
  C   C390      1.0  0.05734  0.97666  0.59106  1.0000
  C   C391      1.0  0.09378  0.97773  0.57146  1.0000
  C   C392      1.0  0.15594  0.98589  0.57353  1.0000
  C   C393      1.0  0.18106  0.99290  0.59552  1.0000
  C   C394      1.0  0.14420  0.99247  0.61506  1.0000
  C   C395      1.0  0.09602  0.64839  0.53644  1.0000
  C   C396      1.0  0.03882  0.64837  0.54812  1.0000
  C   C397      1.0  0.00026  0.66792  0.54960  1.0000
  C   C398      1.0  0.01758  0.68783  0.53912  1.0000
  C   C399      1.0  0.07714  0.68834  0.52907  1.0000
  C   C400      1.0  0.11594  0.66906  0.52801  1.0000
  C   C401      1.0  0.13180  0.62650  0.53074  1.0000
  C   C402      1.0  0.15862  0.62183  0.50888  1.0000
  C   C403      1.0  0.19078  0.60129  0.50268  1.0000
  C   C404      1.0  0.19664  0.58445  0.51799  1.0000
  C   C405      1.0  0.17006  0.58902  0.53997  1.0000
  C   C406      1.0  0.13778  0.60982  0.54626  1.0000
  C   C407      1.0  0.06500  0.52758  0.84966  1.0000
  C   C408      1.0  0.09154  0.52338  0.82771  1.0000
  C   C409      1.0  0.05354  0.52029  0.80804  1.0000
  C   C410      1.0  0.98804  0.52105  0.80989  1.0000
  C   C411      1.0  0.96186  0.52675  0.83181  1.0000
  C   C412      1.0  0.99998  0.53007  0.85147  1.0000
  C   C413      1.0  0.10396  0.52662  0.87056  1.0000
  C   C414      1.0  0.09788  0.54316  0.89010  1.0000
  C   C415      1.0  0.17768  0.50549  0.89168  1.0000
  C   C416      1.0  0.14484  0.50796  0.87150  1.0000
  C   C417      1.0  0.51032  0.15914  0.03046  1.0000
  C   C418      1.0  0.52572  0.17318  0.01329  1.0000
  C   C419      1.0  0.56762  0.19204  0.01799  1.0000
  C   C420      1.0  0.59608  0.19692  0.03983  1.0000
  C   C421      1.0  0.57818  0.18336  0.05724  1.0000
  C   C422      1.0  0.53534  0.16481  0.05264  1.0000
  C   C423      1.0  0.47272  0.13746  0.02477  1.0000
  C   C424      1.0  0.41994  0.13283  0.03771  1.0000
  C   C425      1.0  0.38582  0.11191  0.03250  1.0000
  C   C426      1.0  0.40500  0.09508  0.01466  1.0000
  C   C427      1.0  0.45828  0.09968  0.00195  1.0000
  C   C428      1.0  0.49144  0.12075  0.00682  1.0000
  C   C429      1.0  0.55254  0.03245  0.36550  1.0000
  C   C430      1.0  0.54166  0.05178  0.35360  1.0000
  C   C431      1.0  0.57908  0.05603  0.33495  1.0000
  C   C432      1.0  0.62862  0.04114  0.32782  1.0000
  C   C433      1.0  0.63878  0.02164  0.33957  1.0000
  C   C434      1.0  0.60122  0.01733  0.35809  1.0000
  C   C435      1.0  0.51394  0.02803  0.38568  1.0000
  C   C436      1.0  0.49736  0.04639  0.40249  1.0000
  C   C437      1.0  0.46308  0.04190  0.42187  1.0000
  C   C438      1.0  0.44440  0.01895  0.42486  1.0000
  C   C439      1.0  0.46020  0.00071  0.40777  1.0000
  C   C440      1.0  0.49452  0.00518  0.38853  1.0000
  C   C441      1.0  0.57206  0.36242  0.45859  1.0000
  C   C442      1.0  0.59404  0.35353  0.47839  1.0000
  C   C443      1.0  0.63298  0.33417  0.47658  1.0000
  C   C444      1.0  0.65160  0.32339  0.45490  1.0000
  C   C445      1.0  0.62744  0.33181  0.43509  1.0000
  C   C446      1.0  0.58786  0.35101  0.43692  1.0000
  C   C447      1.0  0.53578  0.38431  0.46060  1.0000
  C   C448      1.0  0.48102  0.38601  0.44755  1.0000
  C   C449      1.0  0.44688  0.40669  0.44986  1.0000
  C   C450      1.0  0.46740  0.42618  0.46500  1.0000
  C   C451      1.0  0.52306  0.42455  0.47760  1.0000
  C   C452      1.0  0.55656  0.40384  0.47553  1.0000
  C   C453      1.0  0.57630  0.48602  0.12061  1.0000
  C   C454      1.0  0.57414  0.46578  0.13179  1.0000
  C   C455      1.0  0.61772  0.46267  0.14902  1.0000
  C   C456      1.0  0.66428  0.47975  0.15552  1.0000
  C   C457      1.0  0.66454  0.50046  0.14508  1.0000
  C   C458      1.0  0.62110  0.50354  0.12783  1.0000
  C   C459      1.0  0.53419  0.48837  0.10075  1.0000
  C   C460      1.0  0.55768  0.49705  0.08104  1.0000
  C   C461      1.0  0.51878  0.49897  0.06214  1.0000
  C   C462      1.0  0.45524  0.49231  0.06243  1.0000
  C   C463      1.0  0.43180  0.48352  0.08214  1.0000
  C   C464      1.0  0.47086  0.48153  0.10104  1.0000
  Dy  Dy1       1.0  0.35918  0.01943  0.98783  1.0000
  Dy  Dy2       1.0  0.27277  0.53496  0.98028  1.0000
  Dy  Dy3       1.0  0.39394  0.50701  0.99078  1.0000
  Dy  Dy4       1.0  0.23906  0.00190  0.95790  1.0000
  Dy  Dy5       1.0  0.27322  0.48061  0.96557  1.0000
  Dy  Dy6       1.0  0.24676  0.99160  0.00952  1.0000
  Dy  Dy7       1.0  0.22742  0.04530  0.00093  1.0000
  Dy  Dy8       1.0  0.20836  0.99665  0.49916  1.0000
  Dy  Dy9       1.0  0.32774  0.99000  0.52860  1.0000
  Dy  Dy10      1.0  0.33368  0.02891  0.49186  1.0000
  Dy  Dy11      1.0  0.33644  0.97333  0.47531  1.0000
  Dy  Dy12      1.0  0.30304  0.52746  0.46800  1.0000
  Dy  Dy13      1.0  0.28790  0.47366  0.47193  1.0000
  Dy  Dy14      1.0  0.29060  0.51386  0.51818  1.0000
  Dy  Dy15      1.0  0.41520  0.50118  0.49077  1.0000
  Dy  Dy16      1.0  0.26846  0.49698  0.01892  1.0000
  H   H1        1.0  0.36302  0.60807  0.97957  1.0000
  H   H2        1.0  0.08030  0.38136  0.97271  1.0000
  H   H3        1.0  0.18170  0.12929  0.97493  1.0000
  H   H4        1.0  0.23086  0.91150  0.97487  1.0000
  H   H5        1.0  0.47386  0.08713  0.98796  1.0000
  H   H6        1.0  0.53248  0.12384  0.99679  1.0000
  H   H7        1.0  0.73814  0.75436  0.97579  1.0000
  H   H8        1.0  0.77154  0.80558  0.98540  1.0000
  H   H9        1.0  0.99694  0.78792  0.99008  1.0000
  H   H10       1.0  0.56606  0.70234  0.96876  1.0000
  H   H11       1.0  0.42940  0.64308  0.98056  1.0000
  H   H12       1.0  0.08108  0.34416  0.99044  1.0000
  H   H13       1.0  0.03456  0.18724  0.98568  1.0000
  H   H14       1.0  0.09614  0.86042  0.99334  1.0000
  H   H15       1.0  0.17670  0.87375  0.97140  1.0000
  H   H16       1.0  0.50636  0.16923  0.99610  1.0000
  H   H17       1.0  0.14996  0.41382  0.96582  1.0000
  H   H18       1.0  0.67570  0.71900  0.96275  1.0000
  H   H19       1.0  0.84684  0.82778  0.96541  1.0000
  H   H20       1.0  0.52550  0.56503  0.96677  1.0000
  H   H21       1.0  0.59132  0.59986  0.96750  1.0000
  H   H22       1.0  0.50036  0.66717  0.95940  1.0000
  H   H23       1.0  0.24524  0.09615  0.95989  1.0000
  H   H24       1.0  0.07902  0.05245  0.95005  1.0000
  H   H25       1.0  0.09086  0.15558  0.96377  1.0000
  H   H26       1.0  0.01546  0.08558  0.96547  1.0000
  H   H27       1.0  0.54236  0.46265  0.94465  1.0000
  H   H28       1.0  0.92974  0.83169  0.93713  1.0000
  H   H29       1.0  0.07208  0.94198  0.94491  1.0000
  H   H30       1.0  0.01544  0.90448  0.94267  1.0000
  H   H31       1.0  0.49084  0.99023  0.92716  1.0000
  H   H32       1.0  0.99864  0.86398  0.92899  1.0000
  H   H33       1.0  0.12576  0.55370  0.92518  1.0000
  H   H34       1.0  0.60860  0.45391  0.91125  1.0000
  H   H35       1.0  0.37826  0.45182  0.90094  1.0000
  H   H36       1.0  0.44636  0.91636  0.06093  1.0000
  H   H37       1.0  0.94412  0.50866  0.23604  1.0000
  H   H38       1.0  0.98640  0.51344  0.27517  1.0000
  H   H39       1.0  0.95182  0.44007  0.27947  1.0000
  H   H40       1.0  0.91106  0.43526  0.24020  1.0000
  H   H41       1.0  0.04356  0.48347  0.20939  1.0000
  H   H42       1.0  0.10922  0.50925  0.18909  1.0000
  H   H43       1.0  0.95254  0.52108  0.14530  1.0000
  H   H44       1.0  0.88734  0.49549  0.16545  1.0000
  H   H45       1.0  0.81868  0.50381  0.21009  1.0000
  H   H46       1.0  0.72022  0.50974  0.19011  1.0000
  H   H47       1.0  0.72766  0.43921  0.15574  1.0000
  H   H48       1.0  0.82462  0.43334  0.17567  1.0000
  H   H49       1.0  0.99310  0.43582  0.19886  1.0000
  H   H50       1.0  0.94362  0.43448  0.17357  1.0000
  H   H51       1.0  0.91536  0.42295  0.19906  1.0000
  H   H52       1.0  0.86412  0.25983  0.01471  1.0000
  H   H53       1.0  0.91130  0.29421  0.00051  1.0000
  H   H54       1.0  0.93568  0.32673  0.07050  1.0000
  H   H55       1.0  0.88778  0.29277  0.08451  1.0000
  H   H56       1.0  0.97480  0.24312  0.04175  1.0000
  H   H57       1.0  0.03296  0.21125  0.02113  1.0000
  H   H58       1.0  0.87900  0.16360  0.02990  1.0000
  H   H59       1.0  0.82312  0.19510  0.05162  1.0000
  H   H60       1.0  0.78332  0.22871  0.01762  1.0000
  H   H61       1.0  0.68586  0.20733  0.00914  1.0000
  H   H62       1.0  0.62786  0.22549  0.07957  1.0000
  H   H63       1.0  0.72756  0.24570  0.08823  1.0000
  H   H64       1.0  0.90888  0.25102  0.09747  1.0000
  H   H65       1.0  0.84398  0.23078  0.09912  1.0000
  H   H66       1.0  0.83058  0.26193  0.10231  1.0000
  H   H67       1.0  0.87208  0.01764  0.24037  1.0000
  H   H68       1.0  0.91720  0.00964  0.20194  1.0000
  H   H69       1.0  0.91534  0.08335  0.19512  1.0000
  H   H70       1.0  0.87187  0.09128  0.23339  1.0000
  H   H71       1.0  0.97678  0.03697  0.26260  1.0000
  H   H72       1.0  0.03898  0.01280  0.28538  1.0000
  H   H73       1.0  0.90866  0.02595  0.34133  1.0000
  H   H74       1.0  0.84618  0.04923  0.31851  1.0000
  H   H75       1.0  0.77474  0.01978  0.27087  1.0000
  H   H76       1.0  0.68604  0.01093  0.29462  1.0000
  H   H77       1.0  0.67258  0.08429  0.31971  1.0000
  H   H78       1.0  0.75900  0.09303  0.29550  1.0000
  H   H79       1.0  0.92910  0.09608  0.27547  1.0000
  H   H80       1.0  0.87794  0.09687  0.29995  1.0000
  H   H81       1.0  0.84907  0.10537  0.27312  1.0000
  H   H82       1.0  0.86844  0.23837  0.47461  1.0000
  H   H83       1.0  0.91366  0.20179  0.48387  1.0000
  H   H84       1.0  0.98067  0.18795  0.41420  1.0000
  H   H85       1.0  0.93920  0.22463  0.40557  1.0000
  H   H86       1.0  0.95976  0.26653  0.47672  1.0000
  H   H87       1.0  0.03218  0.29565  0.49622  1.0000
  H   H88       1.0  0.00974  0.33816  0.44103  1.0000
  H   H89       1.0  0.93694  0.30922  0.42163  1.0000
  H   H90       1.0  0.84312  0.29537  0.47568  1.0000
  H   H91       1.0  0.75390  0.32037  0.48285  1.0000
  H   H92       1.0  0.66122  0.28488  0.42232  1.0000
  H   H93       1.0  0.75256  0.26047  0.41461  1.0000
  H   H94       1.0  0.93186  0.26455  0.39548  1.0000
  H   H95       1.0  0.86418  0.28302  0.39802  1.0000
  H   H96       1.0  0.85390  0.25166  0.39297  1.0000
  H   H97       1.0  0.67824  0.50039  0.74754  1.0000
  H   H98       1.0  0.61020  0.51572  0.71926  1.0000
  H   H99       1.0  0.74572  0.49653  0.66637  1.0000
  H   H100      1.0  0.81234  0.48054  0.69430  1.0000
  H   H101      1.0  0.66222  0.45733  0.74795  1.0000
  H   H102      1.0  0.60136  0.44914  0.78143  1.0000
  H   H103      1.0  0.76982  0.45558  0.82300  1.0000
  H   H104      1.0  0.82962  0.46438  0.79006  1.0000
  H   H105      1.0  0.79808  0.51903  0.77050  1.0000
  H   H106      1.0  0.87392  0.53813  0.79838  1.0000
  H   H107      1.0  0.00840  0.48522  0.77589  1.0000
  H   H108      1.0  0.93376  0.46684  0.74785  1.0000
  H   H109      1.0  0.79010  0.43547  0.71692  1.0000
  H   H110      1.0  0.85148  0.43500  0.73823  1.0000
  H   H111      1.0  0.86362  0.45071  0.71364  1.0000
  H   H112      1.0  0.67388  0.70118  0.03227  1.0000
  H   H113      1.0  0.73536  0.73618  0.04513  1.0000
  H   H114      1.0  0.65670  0.78418  0.00891  1.0000
  H   H115      1.0  0.59296  0.81890  0.01515  1.0000
  H   H116      1.0  0.73802  0.85392  0.05889  1.0000
  H   H117      1.0  0.80256  0.81941  0.05189  1.0000
  H   H118      1.0  0.92154  0.76618  0.01063  1.0000
  H   H119      1.0  0.80330  0.76835  0.06273  1.0000
  H   H120      1.0  0.86874  0.78415  0.05230  1.0000
  H   H121      1.0  0.86064  0.75293  0.04432  1.0000
  H   H122      1.0  0.79538  0.00724  0.77632  1.0000
  H   H123      1.0  0.72836  0.99524  0.80672  1.0000
  H   H124      1.0  0.56636  0.01880  0.77227  1.0000
  H   H125      1.0  0.63328  0.03091  0.74217  1.0000
  H   H126      1.0  0.68402  0.00345  0.70639  1.0000
  H   H127      1.0  0.65214  0.00376  0.66633  1.0000
  H   H128      1.0  0.73924  0.07175  0.66608  1.0000
  H   H129      1.0  0.77306  0.07118  0.70596  1.0000
  H   H130      1.0  0.78184  0.98528  0.71347  1.0000
  H   H131      1.0  0.85850  0.96902  0.68549  1.0000
  H   H132      1.0  0.98656  0.02581  0.70821  1.0000
  H   H133      1.0  0.90920  0.04267  0.73543  1.0000
  H   H134      1.0  0.75636  0.07323  0.75681  1.0000
  H   H135      1.0  0.82910  0.07162  0.74120  1.0000
  H   H136      1.0  0.82326  0.05945  0.76815  1.0000
  H   H137      1.0  0.73376  0.75422  0.52181  1.0000
  H   H138      1.0  0.65946  0.78585  0.53145  1.0000
  H   H139      1.0  0.77982  0.83281  0.49907  1.0000
  H   H140      1.0  0.85269  0.80145  0.48919  1.0000
  H   H141      1.0  0.71276  0.74290  0.47813  1.0000
  H   H142      1.0  0.65320  0.70753  0.46393  1.0000
  H   H143      1.0  0.82460  0.66898  0.45614  1.0000
  H   H144      1.0  0.88403  0.70421  0.47061  1.0000
  H   H145      1.0  0.81976  0.71018  0.51868  1.0000
  H   H146      1.0  0.88908  0.68366  0.53479  1.0000
  H   H147      1.0  0.03990  0.73476  0.53551  1.0000
  H   H148      1.0  0.97122  0.76025  0.51712  1.0000
  H   H149      1.0  0.88338  0.76679  0.45782  1.0000
  H   H150      1.0  0.93740  0.74539  0.46598  1.0000
  H   H151      1.0  0.93780  0.77447  0.48146  1.0000
  H   H152      1.0  0.52614  0.98483  0.79132  1.0000
  H   H153      1.0  0.66752  0.01848  0.83743  1.0000
  H   H154      1.0  0.32962  0.00247  0.88583  1.0000
  H   H155      1.0  0.60022  0.01456  0.86999  1.0000
  H   H156      1.0  0.55664  0.98853  0.89339  1.0000
  H   H157      1.0  0.45888  0.98019  0.82409  1.0000
  H   H158      1.0  0.39592  0.00169  0.85199  1.0000
  H   H159      1.0  0.58886  0.80738  0.50601  1.0000
  H   H160      1.0  0.73092  0.85803  0.53196  1.0000
  H   H161      1.0  0.48478  0.93702  0.54503  1.0000
  H   H162      1.0  0.43338  0.90368  0.47728  1.0000
  H   H163      1.0  0.65502  0.88928  0.53193  1.0000
  H   H164      1.0  0.55446  0.90474  0.54995  1.0000
  H   H165      1.0  0.51288  0.83858  0.50615  1.0000
  H   H166      1.0  0.50288  0.87162  0.48223  1.0000
  H   H167      1.0  0.69818  0.53537  0.65765  1.0000
  H   H168      1.0  0.55012  0.49417  0.68327  1.0000
  H   H169      1.0  0.36708  0.52311  0.59288  1.0000
  H   H170      1.0  0.54120  0.51857  0.55567  1.0000
  H   H171      1.0  0.48444  0.50038  0.65042  1.0000
  H   H172      1.0  0.42550  0.52541  0.62910  1.0000
  H   H173      1.0  0.63198  0.54246  0.62524  1.0000
  H   H174      1.0  0.59852  0.51972  0.59133  1.0000
  H   H175      1.0  0.69066  0.66361  0.00768  1.0000
  H   H176      1.0  0.62482  0.62887  0.99889  1.0000
  H   H177      1.0  0.01992  0.07188  0.18284  1.0000
  H   H178      1.0  0.90728  0.01053  0.15987  1.0000
  H   H179      1.0  0.13108  0.98852  0.07447  1.0000
  H   H180      1.0  0.13456  0.06332  0.07303  1.0000
  H   H181      1.0  0.96844  0.00444  0.12457  1.0000
  H   H182      1.0  0.07074  0.99368  0.10980  1.0000
  H   H183      1.0  0.08106  0.06574  0.14794  1.0000
  H   H184      1.0  0.07280  0.06830  0.10776  1.0000
  H   H185      1.0  0.06814  0.17812  0.43539  1.0000
  H   H186      1.0  0.91624  0.15948  0.47827  1.0000
  H   H187      1.0  0.07170  0.05450  0.47947  1.0000
  H   H188      1.0  0.24173  0.09630  0.48111  1.0000
  H   H189      1.0  0.97536  0.12601  0.48792  1.0000
  H   H190      1.0  0.01148  0.08817  0.47172  1.0000
  H   H191      1.0  0.12506  0.14423  0.44389  1.0000
  H   H192      1.0  0.18140  0.12999  0.47396  1.0000
  H   H193      1.0  0.05782  0.44658  0.29445  1.0000
  H   H194      1.0  0.96944  0.51228  0.31622  1.0000
  H   H195      1.0  0.20134  0.52828  0.39955  1.0000
  H   H196      1.0  0.17768  0.45458  0.40519  1.0000
  H   H197      1.0  0.03124  0.51631  0.35172  1.0000
  H   H198      1.0  0.13786  0.52365  0.36465  1.0000
  H   H199      1.0  0.11968  0.45065  0.32972  1.0000
  H   H200      1.0  0.11290  0.45012  0.37056  1.0000
  H   H201      1.0  0.91712  0.35966  0.04957  1.0000
  H   H202      1.0  0.01644  0.31179  0.00081  1.0000
  H   H203      1.0  0.16076  0.43544  0.03910  1.0000
  H   H204      1.0  0.98188  0.39191  0.03930  1.0000
  H   H205      1.0  0.09228  0.40311  0.04580  1.0000
  H   H206      1.0  0.53374  0.84410  0.04201  1.0000
  H   H207      1.0  0.70498  0.88397  0.03705  1.0000
  H   H208      1.0  0.51172  0.96768  0.00298  1.0000
  H   H209      1.0  0.37862  0.94774  0.05258  1.0000
  H   H210      1.0  0.64516  0.91950  0.03735  1.0000
  H   H211      1.0  0.57866  0.93595  0.01091  1.0000
  H   H212      1.0  0.47374  0.87939  0.04094  1.0000
  H   H213      1.0  0.62974  0.06948  0.64223  1.0000
  H   H214      1.0  0.72444  0.00391  0.62866  1.0000
  H   H215      1.0  0.51068  0.98430  0.54240  1.0000
  H   H216      1.0  0.51630  0.05764  0.53479  1.0000
  H   H217      1.0  0.68942  0.00023  0.58860  1.0000
  H   H218      1.0  0.59338  0.99020  0.57106  1.0000
  H   H219      1.0  0.59172  0.06546  0.60270  1.0000
  H   H220      1.0  0.60198  0.06373  0.56277  1.0000
  H   H221      1.0  0.75216  0.64569  0.47881  1.0000
  H   H222      1.0  0.63350  0.67541  0.43045  1.0000
  H   H223      1.0  0.42218  0.59036  0.45321  1.0000
  H   H224      1.0  0.57796  0.54454  0.45872  1.0000
  H   H225      1.0  0.56834  0.63988  0.42626  1.0000
  H   H226      1.0  0.49402  0.62227  0.44846  1.0000
  H   H227      1.0  0.68650  0.61071  0.47537  1.0000
  H   H228      1.0  0.65020  0.57639  0.45309  1.0000
  H   H229      1.0  0.69416  0.47838  0.84654  1.0000
  H   H230      1.0  0.58290  0.42197  0.81075  1.0000
  H   H231      1.0  0.52072  0.42009  0.84546  1.0000
  H   H232      1.0  0.44452  0.44371  0.86749  1.0000
  H   H233      1.0  0.63246  0.47669  0.88080  1.0000
  H   H234      1.0  0.96274  0.13858  0.03021  1.0000
  H   H235      1.0  0.01666  0.10697  0.00756  1.0000
  H   H236      1.0  0.93706  0.98642  0.34399  1.0000
  H   H237      1.0  0.10592  0.01691  0.31934  1.0000
  H   H238      1.0  0.24886  0.95273  0.40244  1.0000
  H   H239      1.0  0.11714  0.99681  0.44185  1.0000
  H   H240      1.0  0.16662  0.00019  0.34870  1.0000
  H   H241      1.0  0.19050  0.95764  0.36694  1.0000
  H   H242      1.0  0.99770  0.97060  0.37376  1.0000
  H   H243      1.0  0.05826  0.00096  0.40686  1.0000
  H   H244      1.0  0.02246  0.33803  0.51515  1.0000
  H   H245      1.0  0.12436  0.34143  0.45225  1.0000
  H   H246      1.0  0.32032  0.42138  0.51079  1.0000
  H   H247      1.0  0.14932  0.45129  0.53874  1.0000
  H   H248      1.0  0.18758  0.37385  0.47103  1.0000
  H   H249      1.0  0.26728  0.38363  0.50183  1.0000
  H   H250      1.0  0.08650  0.37053  0.53417  1.0000
  H   H251      1.0  0.09580  0.41344  0.52950  1.0000
  H   H252      1.0  0.15044  0.50456  0.14950  1.0000
  H   H253      1.0  0.01378  0.55871  0.14868  1.0000
  H   H254      1.0  0.32062  0.55215  0.07119  1.0000
  H   H255      1.0  0.14186  0.56843  0.04310  1.0000
  H   H256      1.0  0.07532  0.57634  0.12005  1.0000
  H   H257      1.0  0.27364  0.55138  0.10884  1.0000
  H   H258      1.0  0.21072  0.52154  0.12076  1.0000
  H   H259      1.0  0.09376  0.56633  0.08031  1.0000
  H   H260      1.0  0.02900  0.82834  0.00107  1.0000
  H   H261      1.0  0.05160  0.98513  0.69231  1.0000
  H   H262      1.0  0.89054  0.99545  0.65036  1.0000
  H   H263      1.0  0.07352  0.97197  0.55469  1.0000
  H   H264      1.0  0.22876  0.99949  0.59760  1.0000
  H   H265      1.0  0.95482  0.99156  0.61621  1.0000
  H   H266      1.0  0.01006  0.96976  0.58875  1.0000
  H   H267      1.0  0.11616  0.97934  0.65793  1.0000
  H   H268      1.0  0.16464  0.99914  0.63155  1.0000
  H   H269      1.0  0.95572  0.66696  0.55810  1.0000
  H   H270      1.0  0.09282  0.70299  0.52057  1.0000
  H   H271      1.0  0.21074  0.59877  0.48567  1.0000
  H   H272      1.0  0.17371  0.57649  0.55224  1.0000
  H   H273      1.0  0.16054  0.67000  0.51951  1.0000
  H   H274      1.0  0.15384  0.63389  0.49620  1.0000
  H   H275      1.0  0.02210  0.63282  0.55499  1.0000
  H   H276      1.0  0.11784  0.61288  0.56327  1.0000
  H   H277      1.0  0.07540  0.51641  0.79143  1.0000
  H   H278      1.0  0.91166  0.52718  0.83401  1.0000
  H   H279      1.0  0.20818  0.49071  0.89186  1.0000
  H   H280      1.0  0.97822  0.53310  0.86818  1.0000
  H   H281      1.0  0.06670  0.55772  0.88981  1.0000
  H   H282      1.0  0.14166  0.52169  0.82581  1.0000
  H   H283      1.0  0.14994  0.49479  0.85683  1.0000
  H   H284      1.0  0.57900  0.20235  0.00428  1.0000
  H   H285      1.0  0.59968  0.18615  0.07415  1.0000
  H   H286      1.0  0.34498  0.10878  0.04259  1.0000
  H   H287      1.0  0.52448  0.15408  0.06609  1.0000
  H   H288      1.0  0.40488  0.14546  0.05171  1.0000
  H   H289      1.0  0.56934  0.07108  0.32619  1.0000
  H   H290      1.0  0.67726  0.01007  0.33503  1.0000
  H   H291      1.0  0.45170  0.05644  0.43455  1.0000
  H   H292      1.0  0.44606  0.98283  0.40905  1.0000
  H   H293      1.0  0.61158  0.00247  0.36705  1.0000
  H   H294      1.0  0.51200  0.06419  0.40093  1.0000
  H   H295      1.0  0.50398  0.06358  0.35864  1.0000
  H   H296      1.0  0.50548  0.99067  0.37575  1.0000
  H   H297      1.0  0.64948  0.32795  0.49222  1.0000
  H   H298      1.0  0.64138  0.32432  0.41809  1.0000
  H   H299      1.0  0.40440  0.40731  0.43982  1.0000
  H   H300      1.0  0.54024  0.43911  0.48954  1.0000
  H   H301      1.0  0.57194  0.35758  0.42137  1.0000
  H   H302      1.0  0.46398  0.37121  0.43588  1.0000
  H   H303      1.0  0.58174  0.36176  0.49533  1.0000
  H   H304      1.0  0.59912  0.40317  0.48555  1.0000
  H   H305      1.0  0.61598  0.44660  0.15685  1.0000
  H   H306      1.0  0.70014  0.51386  0.14947  1.0000
  H   H307      1.0  0.53876  0.50580  0.04733  1.0000
  H   H308      1.0  0.38332  0.47813  0.08309  1.0000
  H   H309      1.0  0.62342  0.51949  0.11981  1.0000
  H   H310      1.0  0.60650  0.50209  0.08008  1.0000
  H   H311      1.0  0.54036  0.45191  0.12658  1.0000
  H   H312      1.0  0.45126  0.47487  0.11600  1.0000
  O   O1        1.0  0.30678  0.98655  0.97926  1.0000
  O   O2        1.0  0.28737  0.03570  0.97030  1.0000
  O   O3        1.0  0.19730  0.95827  0.99005  1.0000
  O   O4        1.0  0.33938  0.56368  0.97455  1.0000
  O   O5        1.0  0.43260  0.54354  0.98276  1.0000
  O   O6        1.0  0.33376  0.47784  0.99516  1.0000
  O   O7        1.0  0.21318  0.45157  0.97646  1.0000
  O   O8        1.0  0.46618  0.53381  0.98958  1.0000
  O   O9        1.0  0.47428  0.48810  0.97581  1.0000
  O   O10       1.0  0.18328  0.01065  0.98936  1.0000
  O   O11       1.0  0.39936  0.05484  0.99862  1.0000
  O   O12       1.0  0.21708  0.50464  0.98804  1.0000
  O   O13       1.0  0.33444  0.51050  0.96077  1.0000
  O   O14       1.0  0.25478  0.04913  0.96406  1.0000
  O   O15       1.0  0.39794  0.00931  0.95050  1.0000
  O   O16       1.0  0.19260  0.96687  0.95100  1.0000
  O   O17       1.0  0.43042  0.01810  0.96142  1.0000
  O   O18       1.0  0.44332  0.48248  0.96242  1.0000
  O   O19       1.0  0.18266  0.02982  0.94120  1.0000
  O   O20       1.0  0.31210  0.45197  0.94246  1.0000
  O   O21       1.0  0.35244  0.46248  0.94357  1.0000
  O   O22       1.0  0.21902  0.53657  0.94782  1.0000
  O   O23       1.0  0.21638  0.49522  0.93616  1.0000
  O   O24       1.0  0.21008  0.47737  0.93599  1.0000
  O   O25       1.0  0.30574  0.99617  0.92871  1.0000
  O   O26       1.0  0.33234  0.97389  0.02435  1.0000
  O   O27       1.0  0.41700  0.99464  0.00781  1.0000
  O   O28       1.0  0.29820  0.02476  0.01734  1.0000
  O   O29       1.0  0.30498  0.07373  0.01200  1.0000
  O   O30       1.0  0.18362  0.04166  0.03734  1.0000
  O   O31       1.0  0.18860  0.00090  0.04036  1.0000
  O   O32       1.0  0.29294  0.97182  0.03399  1.0000
  O   O33       1.0  0.19265  0.95907  0.00765  1.0000
  O   O34       1.0  0.16854  0.05678  0.03004  1.0000
  O   O35       1.0  0.25878  0.08134  0.01101  1.0000
  O   O36       1.0  0.44384  0.00914  0.00478  1.0000
  O   O37       1.0  0.23304  0.99423  0.46031  1.0000
  O   O38       1.0  0.40102  0.01430  0.54610  1.0000
  O   O39       1.0  0.42104  0.01130  0.50773  1.0000
  O   O40       1.0  0.26512  0.95720  0.44882  1.0000
  O   O41       1.0  0.39042  0.03179  0.46039  1.0000
  O   O42       1.0  0.39666  0.99054  0.44799  1.0000
  O   O43       1.0  0.27624  0.00278  0.47155  1.0000
  O   O44       1.0  0.27170  0.96815  0.50340  1.0000
  O   O45       1.0  0.38682  0.99777  0.49925  1.0000
  O   O46       1.0  0.27566  0.02012  0.51983  1.0000
  O   O47       1.0  0.39698  0.94549  0.48579  1.0000
  O   O48       1.0  0.39064  0.95658  0.52658  1.0000
  O   O49       1.0  0.26082  0.05356  0.48262  1.0000
  O   O50       1.0  0.16806  0.03289  0.49232  1.0000
  O   O51       1.0  0.25564  0.98446  0.55489  1.0000
  O   O52       1.0  0.16616  0.99299  0.53391  1.0000
  O   O53       1.0  0.13828  0.97236  0.48152  1.0000
  O   O54       1.0  0.13376  0.02125  0.49583  1.0000
  O   O55       1.0  0.37090  0.01093  0.55923  1.0000
  O   O56       1.0  0.37458  0.96170  0.54289  1.0000
  O   O57       1.0  0.40342  0.97283  0.44759  1.0000
  O   O58       1.0  0.29474  0.94365  0.45218  1.0000
  O   O59       1.0  0.38832  0.54836  0.45638  1.0000
  O   O60       1.0  0.31248  0.46630  0.50925  1.0000
  O   O61       1.0  0.23700  0.48311  0.53229  1.0000
  O   O62       1.0  0.47312  0.52874  0.47365  1.0000
  O   O63       1.0  0.35276  0.51968  0.54912  1.0000
  O   O64       1.0  0.44816  0.50971  0.52936  1.0000
  O   O65       1.0  0.35926  0.53249  0.49968  1.0000
  O   O66       1.0  0.35998  0.49664  0.45983  1.0000
  O   O67       1.0  0.34206  0.48175  0.50470  1.0000
  O   O68       1.0  0.23954  0.50583  0.48545  1.0000
  O   O69       1.0  0.45814  0.46679  0.47952  1.0000
  O   O70       1.0  0.36674  0.44613  0.46283  1.0000
  O   O71       1.0  0.24058  0.54759  0.52587  1.0000
  O   O72       1.0  0.24650  0.55822  0.48763  1.0000
  O   O73       1.0  0.24544  0.47582  0.43686  1.0000
  O   O74       1.0  0.24712  0.51657  0.43592  1.0000
  O   O75       1.0  0.34978  0.55001  0.44580  1.0000
  O   O76       1.0  0.24484  0.55811  0.47003  1.0000
  O   O77       1.0  0.20948  0.45142  0.48065  1.0000
  O   O78       1.0  0.32326  0.43999  0.45710  1.0000
  O   O79       1.0  0.48236  0.50231  0.51884  1.0000
  O   O80       1.0  0.50102  0.51505  0.47721  1.0000
  O   O81       1.0  0.30122  0.53606  0.02679  1.0000
  O   O82       1.0  0.22732  0.55735  0.01133  1.0000
  O   O83       1.0  0.32714  0.52720  0.01110  1.0000
  O   O84       1.0  0.44086  0.50153  0.02374  1.0000
  O   O85       1.0  0.35004  0.49134  0.04472  1.0000
  O   O86       1.0  0.21974  0.46194  0.01660  1.0000
  O   O87       1.0  0.19594  0.51252  0.04196  1.0000
  O   O88       1.0  0.30648  0.48873  0.05147  1.0000
  O   O89       1.0  0.20362  0.56006  0.99590  1.0000
  O   O90       1.0  0.16550  0.01288  0.93497  1.0000
  O   O91       1.0  0.38434  0.05778  0.51243  1.0000
  O   O92       1.0  0.21518  0.49919  0.53804  1.0000
  Si  Si1       1.0  0.91262  0.46630  0.20331  1.0000
  Si  Si2       1.0  0.84632  0.24611  0.06151  1.0000
  Si  Si3       1.0  0.85552  0.06225  0.27158  1.0000
  Si  Si4       1.0  0.88230  0.26477  0.43368  1.0000
  Si  Si5       1.0  0.79628  0.47261  0.74278  1.0000
  Si  Si6       1.0  0.78780  0.77459  0.02196  1.0000
  Si  Si7       1.0  0.77118  0.03352  0.73678  1.0000
  Si  Si8       1.0  0.84838  0.75039  0.49279  1.0000
